                                  MODFLOW-Q3D      
      U.S. GEOLOGICAL SURVEY MODULAR FINITE-DIFFERENCE GROUND-WATER FLOW MODEL
                               VERSION 03/14/2018

 LIST FILE: GRID1/parent.OUT
                         UNIT   11

 OPENING GRID1/parent.BAS
 FILE TYPE:BAS6   UNIT   12   STATUS:OLD    
 FORMAT:FORMATTED              ACCESS:SEQUENTIAL          

 OPENING GRID1/parent.BCF
 FILE TYPE:BCF6   UNIT   13   STATUS:OLD    
 FORMAT:FORMATTED              ACCESS:SEQUENTIAL          

 OPENING GRID1/parent.DIS
 FILE TYPE:DIS   UNIT   14   STATUS:OLD    
 FORMAT:FORMATTED              ACCESS:SEQUENTIAL          

 OPENING GRID1/PARENT.WEL
 FILE TYPE:WEL   UNIT   15   STATUS:OLD    
 FORMAT:FORMATTED              ACCESS:SEQUENTIAL          
#RCH 		 15  'GRID1/parent.RCH'                                                                                                                                                                                                                                                                              
#CHD 		 19  'GRID1/parent.CHD'                                                                                                                                                                                                                                                                              

 OPENING GRID1/parent.OC
 FILE TYPE:OC   UNIT   17   STATUS:OLD    
 FORMAT:FORMATTED              ACCESS:SEQUENTIAL          

 OPENING GRID1/parent.PCG
 FILE TYPE:PCG   UNIT   18   STATUS:OLD    
 FORMAT:FORMATTED              ACCESS:SEQUENTIAL          

 OPENING GRID1/PARENT.HED
 FILE TYPE:DATA   UNIT   16   STATUS:UNKNOWN
 FORMAT:FORMATTED              ACCESS:SEQUENTIAL          

 OPENING GRID1/parent.FLW
 FILE TYPE:DATA(BINARY)   UNIT   20   STATUS:UNKNOWN
 FORMAT:UNFORMATTED            ACCESS:STREAM              

 BAS -- BASIC PACKAGE, VERSION 7, 5/2/2005 INPUT READ FROM UNIT   12

 MODFLOW was compiled using mixed precision
 Precision of REAL variables:           6
 Precision of DOUBLE PRECISION variables:          15

 DISCRETIZATION INPUT DATA READ FROM UNIT   14
    2 LAYERS        25 ROWS        25 COLUMNS
    1 STRESS PERIOD(S) IN SIMULATION
 MODEL TIME UNIT IS DAYS
 MODEL LENGTH UNIT IS METERS
  Confining bed flag for each layer:
   0   0

                     DELR =   40.0000    

                     DELC =   40.0000    

 TOP ELEVATION OF LAYER 1 =   20.0000    

   MODEL LAYER BOTTOM EL. =   10.0000     FOR LAYER   1

   MODEL LAYER BOTTOM EL. =   0.00000     FOR LAYER   2


 STRESS PERIOD     LENGTH       TIME STEPS     MULTIPLIER FOR DELT    SS FLAG
 ----------------------------------------------------------------------------
        1         60.00000         60                    1.000         TR

 TRANSIENT SIMULATION




 THE FREE FORMAT OPTION HAS BEEN SELECTED

 OPENING FILE ON UNIT   99:
 GRID1/parent.BAS.ibound1                                                                                                                                                                                



                     BOUNDARY ARRAY FOR LAYER   1
 READING ON UNIT   99 WITH FORMAT: (FREE)              

 OPENING FILE ON UNIT   99:
 GRID1/parent.BAS.ibound1                                                                                                                                                                                



                     BOUNDARY ARRAY FOR LAYER   2
 READING ON UNIT   99 WITH FORMAT: (FREE)              

 AQUIFER HEAD WILL BE SET TO  1.00000E+30 AT ALL NO-FLOW NODES (IBOUND=0).

             INITIAL HEAD =   18.0000     FOR LAYER   1

             INITIAL HEAD =   18.0000     FOR LAYER   2

 OUTPUT CONTROL IS SPECIFIED ONLY AT TIME STEPS FOR WHICH OUTPUT IS DESIRED
 HEADS WILL BE SAVED WITH FORMAT: (500F15.6)          
 SAVED HEADS WILL BE LABELED
 COMPACT CELL-BY-CELL BUDGET FILES WILL BE WRITTEN
 HEAD PRINT FORMAT CODE IS   6    DRAWDOWN PRINT FORMAT CODE IS   0
 HEADS WILL BE SAVED ON UNIT   16    DRAWDOWNS WILL BE SAVED ON UNIT    0

 BCF -- BLOCK-CENTERED FLOW PACKAGE, VERSION 7, 5/2/2005
         INPUT READ FROM UNIT 13
 TRANSIENT SIMULATION
 CELL-BY-CELL FLOWS WILL BE SAVED ON UNIT 20
 HEAD AT CELLS THAT CONVERT TO DRY= -0.10000E+31
 WETTING CAPABILITY IS NOT ACTIVE
      LAYER  LAYER-TYPE CODE     INTERBLOCK T
      --------------------------------------------
         1            3          0 -- HARMONIC    
         2            3          0 -- HARMONIC    

 COLUMN TO ROW ANISOTROPY =   1.00000    

     PRIMARY STORAGE COEF =   0.00000     FOR LAYER   1

    HYD. COND. ALONG ROWS =   1.06100     FOR LAYER   1

 VERT HYD COND /THICKNESS =  0.106100     FOR LAYER   1

   SECONDARY STORAGE COEF =  0.200000     FOR LAYER   1

     PRIMARY STORAGE COEF =   0.00000     FOR LAYER   2

    HYD. COND. ALONG ROWS =   1.06100     FOR LAYER   2

   SECONDARY STORAGE COEF =  0.200000     FOR LAYER   2

 WEL -- WELL PACKAGE, VERSION 7, 5/2/2005 INPUT READ FROM UNIT   15
 No named parameters
 MAXIMUM OF      3 ACTIVE WELLS AT ONE TIME


     0 Well parameters

 PCG -- CONJUGATE-GRADIENT SOLUTION PACKAGE, VERSION 7, 5/2/2005
 #Conjugate Gradient Solver: Input Instruction
 MAXIMUM OF     50 CALLS OF SOLUTION ROUTINE
 MAXIMUM OF     25 INTERNAL ITERATIONS PER CALL TO SOLUTION ROUTINE
 MATRIX PRECONDITIONING TYPE :    1



                                    SOLUTION BY THE CONJUGATE-GRADIENT METHOD
                                   -------------------------------------------
                    MAXIMUM NUMBER OF CALLS TO PCG ROUTINE =       50
                        MAXIMUM ITERATIONS PER CALL TO PCG =       25
                               MATRIX PRECONDITIONING TYPE =        1
        RELAXATION FACTOR (ONLY USED WITH PRECOND. TYPE 1) =    0.10000E+01
 PARAMETER OF POLYNOMIAL PRECOND. = 2 (2) OR IS CALCULATED :        1
                         HEAD CHANGE CRITERION FOR CLOSURE =    0.10000E-01
                     RESIDUAL CHANGE CRITERION FOR CLOSURE =    0.10000E-01
            PCG HEAD AND RESIDUAL CHANGE PRINTOUT INTERVAL =       10
     PRINTING FROM SOLVER IS LIMITED(1) OR SUPPRESSED (>1) =        1
                            STEADY-STATE DAMPING PARAMETER =    0.10000E+01
                               TRANSIENT DAMPING PARAMETER =    0.10000E+01
1
                            STRESS PERIOD NO.    1, LENGTH =   60.00000    
                            -----------------------------------------------

                              NUMBER OF TIME STEPS =    60

                               MULTIPLIER FOR DELT =     1.000

                            INITIAL TIME STEP SIZE =   1.000000    

 WELL NO.  LAYER   ROW   COL   STRESS RATE         
 --------------------------------------------------
      1      2     13     13      -30.00    
      2      2      6      6      -30.00    
      3      2     20     20      -30.00    

      3 WELLS

 SOLVING FOR HEAD 


     2 CALLS TO PCG ROUTINE FOR TIME STEP   1 IN STRESS PERIOD    1
     3 TOTAL ITERATIONS


     1 CALLS TO PCG ROUTINE FOR TIME STEP   1 IN STRESS PERIOD    1
     1 TOTAL ITERATIONS

 OUTPUT CONTROL FOR STRESS PERIOD    1   TIME STEP    1
    PRINT HEAD FOR ALL LAYERS
    SAVE HEAD FOR ALL LAYERS
    SAVE BUDGET
 UBDSV1 SAVING "         STORAGE" ON UNIT  20 AT TIME STEP  1, STRESS PERIOD   1
 UBDSV2 SAVING "   CONSTANT HEAD" ON UNIT  20 AT TIME STEP  1, STRESS PERIOD   1
 UBDSV1 SAVING "FLOW RIGHT FACE " ON UNIT  20 AT TIME STEP  1, STRESS PERIOD   1
 UBDSV1 SAVING "FLOW FRONT FACE " ON UNIT  20 AT TIME STEP  1, STRESS PERIOD   1
 UBDSV1 SAVING "FLOW LOWER FACE " ON UNIT  20 AT TIME STEP  1, STRESS PERIOD   1
1
              HEAD IN LAYER   1 AT END OF TIME STEP   1 IN STRESS PERIOD    1
  ---------------------------------------------------------------------------

           1       2       3       4       5       6       7       8       9      10      11      12      13      14      15
          16      17      18      19      20      21      22      23      24      25
 ...........................................................................................................................
   1  18.0000 18.0000 18.0000 18.0000 18.0000 18.0000 18.0000 18.0000 18.0000 18.0000 18.0000 18.0000 18.0000 18.0000 18.0000
      18.0000 18.0000 18.0000 18.0000 18.0000 18.0000 18.0000 18.0000 18.0000 18.0000
   2  18.0000 18.0000 18.0000 18.0000 18.0000 18.0000 18.0000 18.0000 18.0000 18.0000 18.0000 18.0000 18.0000 18.0000 18.0000
      18.0000 18.0000 18.0000 18.0000 18.0000 18.0000 18.0000 18.0000 18.0000 18.0000
   3  18.0000 18.0000 18.0000 17.9995 17.9995 17.9994 17.9995 17.9995 18.0000 18.0000 18.0000 18.0000 18.0000 18.0000 18.0000
      18.0000 18.0000 18.0000 18.0000 18.0000 18.0000 18.0000 18.0000 18.0000 18.0000
   4  18.0000 18.0000 17.9995 17.9995 17.9994 17.9990 17.9994 17.9995 17.9995 18.0000 18.0000 18.0000 18.0000 18.0000 18.0000
      18.0000 18.0000 18.0000 18.0000 18.0000 18.0000 18.0000 18.0000 18.0000 18.0000
   5  18.0000 18.0000 17.9995 17.9994 17.9986 17.9936 17.9986 17.9994 17.9995 18.0000 18.0000 18.0000 18.0000 18.0000 18.0000
      18.0000 18.0000 18.0000 18.0000 18.0000 18.0000 18.0000 18.0000 18.0000 18.0000
   6  18.0000 18.0000 17.9994 17.9990 17.9936 17.9358 17.9936 17.9990 17.9994 18.0000 18.0000 18.0000 18.0000 18.0000 18.0000
      18.0000 18.0000 18.0000 18.0000 18.0000 18.0000 18.0000 18.0000 18.0000 18.0000
   7  18.0000 18.0000 17.9995 17.9994 17.9986 17.9936 17.9986 17.9994 17.9995 18.0000 18.0000 18.0000 18.0000 18.0000 18.0000
      18.0000 18.0000 18.0000 18.0000 18.0000 18.0000 18.0000 18.0000 18.0000 18.0000
   8  18.0000 18.0000 17.9995 17.9995 17.9994 17.9990 17.9994 17.9995 17.9995 18.0000 18.0000 18.0000 18.0000 18.0000 18.0000
      18.0000 18.0000 18.0000 18.0000 18.0000 18.0000 18.0000 18.0000 18.0000 18.0000
   9  18.0000 18.0000 18.0000 17.9995 17.9995 17.9994 17.9995 17.9995 18.0000 18.0000 18.0000 18.0000 18.0000 18.0000 18.0000
      18.0000 18.0000 18.0000 18.0000 18.0000 18.0000 18.0000 18.0000 18.0000 18.0000
  10  18.0000 18.0000 18.0000 18.0000 18.0000 18.0000 18.0000 18.0000 18.0000 18.0000 18.0000 17.9993 17.9993 17.9993 18.0000
      18.0000 18.0000 18.0000 18.0000 18.0000 18.0000 18.0000 18.0000 18.0000 18.0000
  11  18.0000 18.0000 18.0000 18.0000 18.0000 18.0000 18.0000 18.0000 18.0000 18.0000 17.9999 17.9992 17.9988 17.9992 17.9999
      18.0000 18.0000 18.0000 18.0000 18.0000 18.0000 18.0000 18.0000 18.0000 18.0000
  12  18.0000 18.0000 18.0000 18.0000 18.0000 18.0000 18.0000 18.0000 18.0000 17.9993 17.9992 17.9984 17.9934 17.9984 17.9992
      17.9993 18.0000 18.0000 18.0000 18.0000 18.0000 18.0000 18.0000 18.0000 18.0000
  13  18.0000 18.0000 18.0000 18.0000 18.0000 18.0000 18.0000 18.0000 18.0000 17.9993 17.9988 17.9934 17.9356 17.9934 17.9988
      17.9993 18.0000 18.0000 18.0000 18.0000 18.0000 18.0000 18.0000 18.0000 18.0000
  14  18.0000 18.0000 18.0000 18.0000 18.0000 18.0000 18.0000 18.0000 18.0000 17.9993 17.9992 17.9984 17.9934 17.9984 17.9992
      17.9993 18.0000 18.0000 18.0000 18.0000 18.0000 18.0000 18.0000 18.0000 18.0000
  15  18.0000 18.0000 18.0000 18.0000 18.0000 18.0000 18.0000 18.0000 18.0000 18.0000 17.9999 17.9992 17.9988 17.9992 17.9999
      18.0000 18.0000 18.0000 18.0000 18.0000 18.0000 18.0000 18.0000 18.0000 18.0000
  16  18.0000 18.0000 18.0000 18.0000 18.0000 18.0000 18.0000 18.0000 18.0000 18.0000 18.0000 17.9993 17.9993 17.9993 18.0000
      18.0000 18.0000 18.0000 18.0000 18.0000 18.0000 18.0000 18.0000 18.0000 18.0000
  17  18.0000 18.0000 18.0000 18.0000 18.0000 18.0000 18.0000 18.0000 18.0000 18.0000 18.0000 18.0000 18.0000 18.0000 18.0000
      18.0000 18.0000 17.9995 17.9995 17.9994 17.9995 17.9995 18.0000 18.0000 18.0000
  18  18.0000 18.0000 18.0000 18.0000 18.0000 18.0000 18.0000 18.0000 18.0000 18.0000 18.0000 18.0000 18.0000 18.0000 18.0000
      18.0000 17.9995 17.9995 17.9994 17.9990 17.9994 17.9995 17.9995 18.0000 18.0000
  19  18.0000 18.0000 18.0000 18.0000 18.0000 18.0000 18.0000 18.0000 18.0000 18.0000 18.0000 18.0000 18.0000 18.0000 18.0000
      18.0000 17.9995 17.9994 17.9986 17.9936 17.9986 17.9994 17.9995 18.0000 18.0000
  20  18.0000 18.0000 18.0000 18.0000 18.0000 18.0000 18.0000 18.0000 18.0000 18.0000 18.0000 18.0000 18.0000 18.0000 18.0000
      18.0000 17.9994 17.9990 17.9936 17.9358 17.9936 17.9990 17.9994 18.0000 18.0000
  21  18.0000 18.0000 18.0000 18.0000 18.0000 18.0000 18.0000 18.0000 18.0000 18.0000 18.0000 18.0000 18.0000 18.0000 18.0000
      18.0000 17.9995 17.9994 17.9986 17.9936 17.9986 17.9994 17.9995 18.0000 18.0000
  22  18.0000 18.0000 18.0000 18.0000 18.0000 18.0000 18.0000 18.0000 18.0000 18.0000 18.0000 18.0000 18.0000 18.0000 18.0000
      18.0000 17.9995 17.9995 17.9994 17.9990 17.9994 17.9995 17.9995 18.0000 18.0000
  23  18.0000 18.0000 18.0000 18.0000 18.0000 18.0000 18.0000 18.0000 18.0000 18.0000 18.0000 18.0000 18.0000 18.0000 18.0000
      18.0000 18.0000 17.9995 17.9995 17.9994 17.9995 17.9995 18.0000 18.0000 18.0000
  24  18.0000 18.0000 18.0000 18.0000 18.0000 18.0000 18.0000 18.0000 18.0000 18.0000 18.0000 18.0000 18.0000 18.0000 18.0000
      18.0000 18.0000 18.0000 18.0000 18.0000 18.0000 18.0000 18.0000 18.0000 18.0000
  25  18.0000 18.0000 18.0000 18.0000 18.0000 18.0000 18.0000 18.0000 18.0000 18.0000 18.0000 18.0000 18.0000 18.0000 18.0000
      18.0000 18.0000 18.0000 18.0000 18.0000 18.0000 18.0000 18.0000 18.0000 18.0000
1
              HEAD IN LAYER   2 AT END OF TIME STEP   1 IN STRESS PERIOD    1
  ---------------------------------------------------------------------------

           1       2       3       4       5       6       7       8       9      10      11      12      13      14      15
          16      17      18      19      20      21      22      23      24      25
 ...........................................................................................................................
   1  18.0000 18.0000 18.0000 18.0000 18.0000 18.0000 18.0000 18.0000 18.0000 18.0000 18.0000 18.0000 18.0000 18.0000 18.0000
      18.0000 18.0000 18.0000 18.0000 18.0000 18.0000 18.0000 18.0000 18.0000 18.0000
   2  18.0000 18.0000 18.0000 18.0000 18.0000 18.0000 18.0000 18.0000 18.0000 18.0000 18.0000 18.0000 18.0000 18.0000 18.0000
      18.0000 18.0000 18.0000 18.0000 18.0000 18.0000 18.0000 18.0000 18.0000 18.0000
   3  18.0000 18.0000 17.9999 17.9995 17.9995 17.9994 17.9995 17.9995 17.9999 18.0000 18.0000 18.0000 18.0000 18.0000 18.0000
      18.0000 18.0000 18.0000 18.0000 18.0000 18.0000 18.0000 18.0000 18.0000 18.0000
   4  18.0000 18.0000 17.9995 17.9994 17.9992 17.9983 17.9992 17.9994 17.9995 18.0000 18.0000 18.0000 18.0000 18.0000 18.0000
      18.0000 18.0000 18.0000 18.0000 18.0000 18.0000 18.0000 18.0000 18.0000 18.0000
   5  18.0000 18.0000 17.9995 17.9992 17.9972 17.9848 17.9972 17.9992 17.9995 18.0000 18.0000 18.0000 18.0000 18.0000 18.0000
      18.0000 18.0000 18.0000 18.0000 18.0000 18.0000 18.0000 18.0000 18.0000 18.0000
   6  18.0000 18.0000 17.9994 17.9983 17.9848 17.8042 17.9848 17.9983 17.9994 17.9999 18.0000 18.0000 18.0000 18.0000 18.0000
      18.0000 18.0000 18.0000 18.0000 18.0000 18.0000 18.0000 18.0000 18.0000 18.0000
   7  18.0000 18.0000 17.9995 17.9992 17.9972 17.9848 17.9972 17.9992 17.9995 18.0000 18.0000 18.0000 18.0000 18.0000 18.0000
      18.0000 18.0000 18.0000 18.0000 18.0000 18.0000 18.0000 18.0000 18.0000 18.0000
   8  18.0000 18.0000 17.9995 17.9994 17.9992 17.9983 17.9992 17.9994 17.9995 18.0000 18.0000 18.0000 18.0000 18.0000 18.0000
      18.0000 18.0000 18.0000 18.0000 18.0000 18.0000 18.0000 18.0000 18.0000 18.0000
   9  18.0000 18.0000 17.9999 17.9995 17.9995 17.9994 17.9995 17.9995 17.9999 18.0000 18.0000 18.0000 17.9999 18.0000 18.0000
      18.0000 18.0000 18.0000 18.0000 18.0000 18.0000 18.0000 18.0000 18.0000 18.0000
  10  18.0000 18.0000 18.0000 18.0000 18.0000 17.9999 18.0000 18.0000 18.0000 18.0000 17.9999 17.9994 17.9993 17.9994 17.9999
      18.0000 18.0000 18.0000 18.0000 18.0000 18.0000 18.0000 18.0000 18.0000 18.0000
  11  18.0000 18.0000 18.0000 18.0000 18.0000 18.0000 18.0000 18.0000 18.0000 17.9999 17.9999 17.9991 17.9981 17.9991 17.9999
      18.0000 18.0000 18.0000 18.0000 18.0000 18.0000 18.0000 18.0000 18.0000 18.0000
  12  18.0000 18.0000 18.0000 18.0000 18.0000 18.0000 18.0000 18.0000 18.0000 17.9994 17.9991 17.9971 17.9846 17.9971 17.9991
      17.9994 17.9999 18.0000 18.0000 18.0000 18.0000 18.0000 18.0000 18.0000 18.0000
  13  18.0000 18.0000 18.0000 18.0000 18.0000 18.0000 18.0000 18.0000 17.9999 17.9993 17.9981 17.9846 17.8040 17.9846 17.9981
      17.9992 17.9999 18.0000 18.0000 18.0000 18.0000 18.0000 18.0000 18.0000 18.0000
  14  18.0000 18.0000 18.0000 18.0000 18.0000 18.0000 18.0000 18.0000 18.0000 17.9994 17.9991 17.9971 17.9846 17.9971 17.9991
      17.9993 17.9999 18.0000 18.0000 18.0000 18.0000 18.0000 18.0000 18.0000 18.0000
  15  18.0000 18.0000 18.0000 18.0000 18.0000 18.0000 18.0000 18.0000 18.0000 17.9999 17.9999 17.9991 17.9981 17.9991 17.9998
      17.9999 18.0000 18.0000 18.0000 18.0000 18.0000 18.0000 18.0000 18.0000 18.0000
  16  18.0000 18.0000 18.0000 18.0000 18.0000 18.0000 18.0000 18.0000 18.0000 18.0000 18.0000 17.9994 17.9992 17.9993 17.9999
      18.0000 18.0000 18.0000 18.0000 18.0000 18.0000 18.0000 18.0000 18.0000 18.0000
  17  18.0000 18.0000 18.0000 18.0000 18.0000 18.0000 18.0000 18.0000 18.0000 18.0000 18.0000 17.9999 17.9999 17.9999 18.0000
      18.0000 17.9999 17.9995 17.9995 17.9994 17.9995 17.9995 17.9999 18.0000 18.0000
  18  18.0000 18.0000 18.0000 18.0000 18.0000 18.0000 18.0000 18.0000 18.0000 18.0000 18.0000 18.0000 18.0000 18.0000 18.0000
      18.0000 17.9995 17.9994 17.9992 17.9983 17.9992 17.9994 17.9995 18.0000 18.0000
  19  18.0000 18.0000 18.0000 18.0000 18.0000 18.0000 18.0000 18.0000 18.0000 18.0000 18.0000 18.0000 18.0000 18.0000 18.0000
      18.0000 17.9995 17.9992 17.9972 17.9848 17.9972 17.9992 17.9995 18.0000 18.0000
  20  18.0000 18.0000 18.0000 18.0000 18.0000 18.0000 18.0000 18.0000 18.0000 18.0000 18.0000 18.0000 18.0000 18.0000 18.0000
      18.0000 17.9994 17.9983 17.9848 17.8042 17.9848 17.9983 17.9994 17.9999 18.0000
  21  18.0000 18.0000 18.0000 18.0000 18.0000 18.0000 18.0000 18.0000 18.0000 18.0000 18.0000 18.0000 18.0000 18.0000 18.0000
      18.0000 17.9995 17.9992 17.9972 17.9848 17.9972 17.9992 17.9995 18.0000 18.0000
  22  18.0000 18.0000 18.0000 18.0000 18.0000 18.0000 18.0000 18.0000 18.0000 18.0000 18.0000 18.0000 18.0000 18.0000 18.0000
      18.0000 17.9995 17.9994 17.9992 17.9983 17.9992 17.9994 17.9995 18.0000 18.0000
  23  18.0000 18.0000 18.0000 18.0000 18.0000 18.0000 18.0000 18.0000 18.0000 18.0000 18.0000 18.0000 18.0000 18.0000 18.0000
      18.0000 17.9999 17.9995 17.9995 17.9994 17.9995 17.9995 17.9999 18.0000 18.0000
  24  18.0000 18.0000 18.0000 18.0000 18.0000 18.0000 18.0000 18.0000 18.0000 18.0000 18.0000 18.0000 18.0000 18.0000 18.0000
      18.0000 18.0000 18.0000 18.0000 17.9999 18.0000 18.0000 18.0000 18.0000 18.0000
  25  18.0000 18.0000 18.0000 18.0000 18.0000 18.0000 18.0000 18.0000 18.0000 18.0000 18.0000 18.0000 18.0000 18.0000 18.0000
      18.0000 18.0000 18.0000 18.0000 18.0000 18.0000 18.0000 18.0000 18.0000 18.0000

 HEAD WILL BE SAVED ON UNIT   16 AT END OF TIME STEP    1, STRESS PERIOD    1



         TIME SUMMARY AT END OF TIME STEP    1 IN STRESS PERIOD    1
                    SECONDS     MINUTES      HOURS       DAYS        YEARS
                    -----------------------------------------------------------
   TIME STEP LENGTH  86400.      1440.0      24.000      1.0000     2.73785E-03
 STRESS PERIOD TIME  86400.      1440.0      24.000      1.0000     2.73785E-03
         TOTAL TIME  86400.      1440.0      24.000      1.0000     2.73785E-03
1

 SOLVING FOR HEAD 
     2 CALLS TO PCG ROUTINE FOR TIME STEP   2 IN STRESS PERIOD    1
     3 TOTAL ITERATIONS
     1 CALLS TO PCG ROUTINE FOR TIME STEP   2 IN STRESS PERIOD    1
     1 TOTAL ITERATIONS

 OUTPUT CONTROL FOR STRESS PERIOD    1   TIME STEP    2
    PRINT HEAD FOR ALL LAYERS
    SAVE HEAD FOR ALL LAYERS
    SAVE BUDGET
 UBDSV1 SAVING "         STORAGE" ON UNIT  20 AT TIME STEP  2, STRESS PERIOD   1
 UBDSV2 SAVING "   CONSTANT HEAD" ON UNIT  20 AT TIME STEP  2, STRESS PERIOD   1
 UBDSV1 SAVING "FLOW RIGHT FACE " ON UNIT  20 AT TIME STEP  2, STRESS PERIOD   1
 UBDSV1 SAVING "FLOW FRONT FACE " ON UNIT  20 AT TIME STEP  2, STRESS PERIOD   1
 UBDSV1 SAVING "FLOW LOWER FACE " ON UNIT  20 AT TIME STEP  2, STRESS PERIOD   1
1
              HEAD IN LAYER   1 AT END OF TIME STEP   2 IN STRESS PERIOD    1
  ---------------------------------------------------------------------------

           1       2       3       4       5       6       7       8       9      10      11      12      13      14      15
          16      17      18      19      20      21      22      23      24      25
 ...........................................................................................................................
   1  18.0000 18.0000 18.0000 18.0000 18.0000 18.0000 18.0000 18.0000 18.0000 18.0000 18.0000 18.0000 18.0000 18.0000 18.0000
      18.0000 18.0000 18.0000 18.0000 18.0000 18.0000 18.0000 18.0000 18.0000 18.0000
   2  18.0000 18.0000 18.0000 17.9999 17.9999 17.9999 17.9999 17.9999 18.0000 18.0000 18.0000 18.0000 18.0000 18.0000 18.0000
      18.0000 18.0000 18.0000 18.0000 18.0000 18.0000 18.0000 18.0000 18.0000 18.0000
   3  18.0000 18.0000 17.9999 17.9993 17.9992 17.9991 17.9992 17.9993 17.9999 18.0000 18.0000 18.0000 18.0000 18.0000 18.0000
      18.0000 18.0000 18.0000 18.0000 18.0000 18.0000 18.0000 18.0000 18.0000 18.0000
   4  18.0000 17.9999 17.9993 17.9991 17.9989 17.9980 17.9989 17.9991 17.9993 17.9999 18.0000 18.0000 18.0000 18.0000 18.0000
      18.0000 18.0000 18.0000 18.0000 18.0000 18.0000 18.0000 18.0000 18.0000 18.0000
   5  18.0000 17.9999 17.9992 17.9989 17.9968 17.9862 17.9968 17.9989 17.9992 17.9999 18.0000 18.0000 18.0000 18.0000 18.0000
      18.0000 18.0000 18.0000 18.0000 18.0000 18.0000 18.0000 18.0000 18.0000 18.0000
   6  18.0000 17.9999 17.9991 17.9980 17.9862 17.8815 17.9862 17.9980 17.9991 17.9999 18.0000 18.0000 18.0000 18.0000 18.0000
      18.0000 18.0000 18.0000 18.0000 18.0000 18.0000 18.0000 18.0000 18.0000 18.0000
   7  18.0000 17.9999 17.9992 17.9989 17.9968 17.9862 17.9968 17.9989 17.9992 17.9999 18.0000 18.0000 18.0000 18.0000 18.0000
      18.0000 18.0000 18.0000 18.0000 18.0000 18.0000 18.0000 18.0000 18.0000 18.0000
   8  18.0000 17.9999 17.9993 17.9991 17.9989 17.9980 17.9989 17.9991 17.9993 17.9999 18.0000 18.0000 18.0000 18.0000 18.0000
      18.0000 18.0000 18.0000 18.0000 18.0000 18.0000 18.0000 18.0000 18.0000 18.0000
   9  18.0000 18.0000 17.9999 17.9993 17.9992 17.9991 17.9992 17.9993 17.9999 18.0000 18.0000 17.9999 17.9999 17.9999 18.0000
      18.0000 18.0000 18.0000 18.0000 18.0000 18.0000 18.0000 18.0000 18.0000 18.0000
  10  18.0000 18.0000 18.0000 17.9999 17.9999 17.9999 17.9999 17.9999 18.0000 18.0000 17.9999 17.9990 17.9989 17.9990 17.9999
      18.0000 18.0000 18.0000 18.0000 18.0000 18.0000 18.0000 18.0000 18.0000 18.0000
  11  18.0000 18.0000 18.0000 18.0000 18.0000 18.0000 18.0000 18.0000 18.0000 17.9999 17.9998 17.9987 17.9977 17.9987 17.9998
      17.9999 18.0000 18.0000 18.0000 18.0000 18.0000 18.0000 18.0000 18.0000 18.0000
  12  18.0000 18.0000 18.0000 18.0000 18.0000 18.0000 18.0000 18.0000 17.9999 17.9990 17.9987 17.9966 17.9859 17.9966 17.9987
      17.9990 17.9999 18.0000 18.0000 18.0000 18.0000 18.0000 18.0000 18.0000 18.0000
  13  18.0000 18.0000 18.0000 18.0000 18.0000 18.0000 18.0000 18.0000 17.9999 17.9989 17.9977 17.9859 17.8813 17.9859 17.9977
      17.9989 17.9999 18.0000 18.0000 18.0000 18.0000 18.0000 18.0000 18.0000 18.0000
  14  18.0000 18.0000 18.0000 18.0000 18.0000 18.0000 18.0000 18.0000 17.9999 17.9990 17.9987 17.9966 17.9859 17.9966 17.9987
      17.9990 17.9999 18.0000 18.0000 18.0000 18.0000 18.0000 18.0000 18.0000 18.0000
  15  18.0000 18.0000 18.0000 18.0000 18.0000 18.0000 18.0000 18.0000 18.0000 17.9999 17.9998 17.9987 17.9977 17.9987 17.9998
      17.9999 18.0000 18.0000 18.0000 18.0000 18.0000 18.0000 18.0000 18.0000 18.0000
  16  18.0000 18.0000 18.0000 18.0000 18.0000 18.0000 18.0000 18.0000 18.0000 18.0000 17.9999 17.9990 17.9989 17.9990 17.9999
      18.0000 18.0000 17.9999 17.9999 17.9999 17.9999 17.9999 18.0000 18.0000 18.0000
  17  18.0000 18.0000 18.0000 18.0000 18.0000 18.0000 18.0000 18.0000 18.0000 18.0000 18.0000 17.9999 17.9999 17.9999 18.0000
      18.0000 17.9999 17.9993 17.9992 17.9991 17.9992 17.9993 17.9999 18.0000 18.0000
  18  18.0000 18.0000 18.0000 18.0000 18.0000 18.0000 18.0000 18.0000 18.0000 18.0000 18.0000 18.0000 18.0000 18.0000 18.0000
      17.9999 17.9993 17.9991 17.9989 17.9980 17.9989 17.9991 17.9993 17.9999 18.0000
  19  18.0000 18.0000 18.0000 18.0000 18.0000 18.0000 18.0000 18.0000 18.0000 18.0000 18.0000 18.0000 18.0000 18.0000 18.0000
      17.9999 17.9992 17.9989 17.9968 17.9862 17.9968 17.9989 17.9992 17.9999 18.0000
  20  18.0000 18.0000 18.0000 18.0000 18.0000 18.0000 18.0000 18.0000 18.0000 18.0000 18.0000 18.0000 18.0000 18.0000 18.0000
      17.9999 17.9991 17.9980 17.9862 17.8815 17.9862 17.9980 17.9991 17.9999 18.0000
  21  18.0000 18.0000 18.0000 18.0000 18.0000 18.0000 18.0000 18.0000 18.0000 18.0000 18.0000 18.0000 18.0000 18.0000 18.0000
      17.9999 17.9992 17.9989 17.9968 17.9862 17.9968 17.9989 17.9992 17.9999 18.0000
  22  18.0000 18.0000 18.0000 18.0000 18.0000 18.0000 18.0000 18.0000 18.0000 18.0000 18.0000 18.0000 18.0000 18.0000 18.0000
      17.9999 17.9993 17.9991 17.9989 17.9980 17.9989 17.9991 17.9993 17.9999 18.0000
  23  18.0000 18.0000 18.0000 18.0000 18.0000 18.0000 18.0000 18.0000 18.0000 18.0000 18.0000 18.0000 18.0000 18.0000 18.0000
      18.0000 17.9999 17.9993 17.9992 17.9991 17.9992 17.9993 17.9999 18.0000 18.0000
  24  18.0000 18.0000 18.0000 18.0000 18.0000 18.0000 18.0000 18.0000 18.0000 18.0000 18.0000 18.0000 18.0000 18.0000 18.0000
      18.0000 18.0000 17.9999 17.9999 17.9999 17.9999 17.9999 18.0000 18.0000 18.0000
  25  18.0000 18.0000 18.0000 18.0000 18.0000 18.0000 18.0000 18.0000 18.0000 18.0000 18.0000 18.0000 18.0000 18.0000 18.0000
      18.0000 18.0000 18.0000 18.0000 18.0000 18.0000 18.0000 18.0000 18.0000 18.0000
1
              HEAD IN LAYER   2 AT END OF TIME STEP   2 IN STRESS PERIOD    1
  ---------------------------------------------------------------------------

           1       2       3       4       5       6       7       8       9      10      11      12      13      14      15
          16      17      18      19      20      21      22      23      24      25
 ...........................................................................................................................
   1  18.0000 18.0000 18.0000 18.0000 18.0000 18.0000 18.0000 18.0000 18.0000 18.0000 18.0000 18.0000 18.0000 18.0000 18.0000
      18.0000 18.0000 18.0000 18.0000 18.0000 18.0000 18.0000 18.0000 18.0000 18.0000
   2  18.0000 18.0000 18.0000 17.9999 17.9999 17.9999 17.9999 17.9999 18.0000 18.0000 18.0000 18.0000 18.0000 18.0000 18.0000
      18.0000 18.0000 18.0000 18.0000 18.0000 18.0000 18.0000 18.0000 18.0000 18.0000
   3  18.0000 18.0000 17.9998 17.9993 17.9992 17.9991 17.9992 17.9993 17.9998 18.0000 18.0000 18.0000 18.0000 18.0000 18.0000
      18.0000 18.0000 18.0000 18.0000 18.0000 18.0000 18.0000 18.0000 18.0000 18.0000
   4  18.0000 17.9999 17.9993 17.9991 17.9986 17.9970 17.9986 17.9991 17.9993 17.9999 18.0000 18.0000 18.0000 18.0000 18.0000
      18.0000 18.0000 18.0000 18.0000 18.0000 18.0000 18.0000 18.0000 18.0000 18.0000
   5  18.0000 17.9999 17.9992 17.9986 17.9949 17.9762 17.9949 17.9986 17.9992 17.9999 18.0000 18.0000 18.0000 18.0000 18.0000
      18.0000 18.0000 18.0000 18.0000 18.0000 18.0000 18.0000 18.0000 18.0000 18.0000
   6  18.0000 17.9999 17.9991 17.9970 17.9762 17.7591 17.9762 17.9970 17.9991 17.9999 18.0000 18.0000 18.0000 18.0000 18.0000
      18.0000 18.0000 18.0000 18.0000 18.0000 18.0000 18.0000 18.0000 18.0000 18.0000
   7  18.0000 17.9999 17.9992 17.9986 17.9949 17.9762 17.9949 17.9986 17.9992 17.9999 18.0000 18.0000 18.0000 18.0000 18.0000
      18.0000 18.0000 18.0000 18.0000 18.0000 18.0000 18.0000 18.0000 18.0000 18.0000
   8  18.0000 17.9999 17.9993 17.9991 17.9986 17.9970 17.9986 17.9991 17.9993 17.9999 18.0000 18.0000 18.0000 18.0000 18.0000
      18.0000 18.0000 18.0000 18.0000 18.0000 18.0000 18.0000 18.0000 18.0000 18.0000
   9  18.0000 18.0000 17.9998 17.9993 17.9992 17.9991 17.9992 17.9993 17.9998 18.0000 18.0000 17.9999 17.9999 17.9999 18.0000
      18.0000 18.0000 18.0000 18.0000 18.0000 18.0000 18.0000 18.0000 18.0000 18.0000
  10  18.0000 18.0000 18.0000 17.9999 17.9999 17.9999 17.9999 17.9999 18.0000 18.0000 17.9999 17.9991 17.9988 17.9991 17.9999
      18.0000 18.0000 18.0000 18.0000 18.0000 18.0000 18.0000 18.0000 18.0000 18.0000
  11  18.0000 18.0000 18.0000 18.0000 18.0000 18.0000 18.0000 18.0000 18.0000 17.9999 17.9997 17.9984 17.9968 17.9984 17.9997
      17.9999 18.0000 18.0000 18.0000 18.0000 18.0000 18.0000 18.0000 18.0000 18.0000
  12  18.0000 18.0000 18.0000 18.0000 18.0000 18.0000 18.0000 18.0000 17.9999 17.9991 17.9984 17.9947 17.9760 17.9947 17.9984
      17.9991 17.9999 18.0000 18.0000 18.0000 18.0000 18.0000 18.0000 18.0000 18.0000
  13  18.0000 18.0000 18.0000 18.0000 18.0000 18.0000 18.0000 18.0000 17.9999 17.9988 17.9968 17.9760 17.7588 17.9760 17.9968
      17.9988 17.9999 18.0000 18.0000 18.0000 18.0000 18.0000 18.0000 18.0000 18.0000
  14  18.0000 18.0000 18.0000 18.0000 18.0000 18.0000 18.0000 18.0000 17.9999 17.9991 17.9984 17.9947 17.9760 17.9947 17.9984
      17.9991 17.9999 18.0000 18.0000 18.0000 18.0000 18.0000 18.0000 18.0000 18.0000
  15  18.0000 18.0000 18.0000 18.0000 18.0000 18.0000 18.0000 18.0000 18.0000 17.9999 17.9997 17.9984 17.9968 17.9984 17.9997
      17.9999 18.0000 18.0000 18.0000 18.0000 18.0000 18.0000 18.0000 18.0000 18.0000
  16  18.0000 18.0000 18.0000 18.0000 18.0000 18.0000 18.0000 18.0000 18.0000 18.0000 17.9999 17.9991 17.9988 17.9991 17.9999
      18.0000 18.0000 17.9999 17.9999 17.9999 17.9999 17.9999 18.0000 18.0000 18.0000
  17  18.0000 18.0000 18.0000 18.0000 18.0000 18.0000 18.0000 18.0000 18.0000 18.0000 18.0000 17.9999 17.9999 17.9999 18.0000
      18.0000 17.9998 17.9993 17.9992 17.9991 17.9992 17.9993 17.9998 18.0000 18.0000
  18  18.0000 18.0000 18.0000 18.0000 18.0000 18.0000 18.0000 18.0000 18.0000 18.0000 18.0000 18.0000 18.0000 18.0000 18.0000
      17.9999 17.9993 17.9991 17.9986 17.9970 17.9986 17.9991 17.9993 17.9999 18.0000
  19  18.0000 18.0000 18.0000 18.0000 18.0000 18.0000 18.0000 18.0000 18.0000 18.0000 18.0000 18.0000 18.0000 18.0000 18.0000
      17.9999 17.9992 17.9986 17.9949 17.9762 17.9949 17.9986 17.9992 17.9999 18.0000
  20  18.0000 18.0000 18.0000 18.0000 18.0000 18.0000 18.0000 18.0000 18.0000 18.0000 18.0000 18.0000 18.0000 18.0000 18.0000
      17.9999 17.9991 17.9970 17.9762 17.7591 17.9762 17.9970 17.9991 17.9999 18.0000
  21  18.0000 18.0000 18.0000 18.0000 18.0000 18.0000 18.0000 18.0000 18.0000 18.0000 18.0000 18.0000 18.0000 18.0000 18.0000
      17.9999 17.9992 17.9986 17.9949 17.9762 17.9949 17.9986 17.9992 17.9999 18.0000
  22  18.0000 18.0000 18.0000 18.0000 18.0000 18.0000 18.0000 18.0000 18.0000 18.0000 18.0000 18.0000 18.0000 18.0000 18.0000
      17.9999 17.9993 17.9991 17.9986 17.9970 17.9986 17.9991 17.9993 17.9999 18.0000
  23  18.0000 18.0000 18.0000 18.0000 18.0000 18.0000 18.0000 18.0000 18.0000 18.0000 18.0000 18.0000 18.0000 18.0000 18.0000
      18.0000 17.9998 17.9993 17.9992 17.9991 17.9992 17.9993 17.9998 18.0000 18.0000
  24  18.0000 18.0000 18.0000 18.0000 18.0000 18.0000 18.0000 18.0000 18.0000 18.0000 18.0000 18.0000 18.0000 18.0000 18.0000
      18.0000 18.0000 17.9999 17.9999 17.9999 17.9999 17.9999 18.0000 18.0000 18.0000
  25  18.0000 18.0000 18.0000 18.0000 18.0000 18.0000 18.0000 18.0000 18.0000 18.0000 18.0000 18.0000 18.0000 18.0000 18.0000
      18.0000 18.0000 18.0000 18.0000 18.0000 18.0000 18.0000 18.0000 18.0000 18.0000

 HEAD WILL BE SAVED ON UNIT   16 AT END OF TIME STEP    2, STRESS PERIOD    1



         TIME SUMMARY AT END OF TIME STEP    2 IN STRESS PERIOD    1
                    SECONDS     MINUTES      HOURS       DAYS        YEARS
                    -----------------------------------------------------------
   TIME STEP LENGTH  86400.      1440.0      24.000      1.0000     2.73785E-03
 STRESS PERIOD TIME 1.72800E+05  2880.0      48.000      2.0000     5.47570E-03
         TOTAL TIME 1.72800E+05  2880.0      48.000      2.0000     5.47570E-03
1

 SOLVING FOR HEAD 
     2 CALLS TO PCG ROUTINE FOR TIME STEP   3 IN STRESS PERIOD    1
     3 TOTAL ITERATIONS
     1 CALLS TO PCG ROUTINE FOR TIME STEP   3 IN STRESS PERIOD    1
     1 TOTAL ITERATIONS

 OUTPUT CONTROL FOR STRESS PERIOD    1   TIME STEP    3
    PRINT HEAD FOR ALL LAYERS
    SAVE HEAD FOR ALL LAYERS
    SAVE BUDGET
 UBDSV1 SAVING "         STORAGE" ON UNIT  20 AT TIME STEP  3, STRESS PERIOD   1
 UBDSV2 SAVING "   CONSTANT HEAD" ON UNIT  20 AT TIME STEP  3, STRESS PERIOD   1
 UBDSV1 SAVING "FLOW RIGHT FACE " ON UNIT  20 AT TIME STEP  3, STRESS PERIOD   1
 UBDSV1 SAVING "FLOW FRONT FACE " ON UNIT  20 AT TIME STEP  3, STRESS PERIOD   1
 UBDSV1 SAVING "FLOW LOWER FACE " ON UNIT  20 AT TIME STEP  3, STRESS PERIOD   1
1
              HEAD IN LAYER   1 AT END OF TIME STEP   3 IN STRESS PERIOD    1
  ---------------------------------------------------------------------------

           1       2       3       4       5       6       7       8       9      10      11      12      13      14      15
          16      17      18      19      20      21      22      23      24      25
 ...........................................................................................................................
   1  18.0000 18.0000 18.0000 18.0000 18.0000 18.0000 18.0000 18.0000 18.0000 18.0000 18.0000 18.0000 18.0000 18.0000 18.0000
      18.0000 18.0000 18.0000 18.0000 18.0000 18.0000 18.0000 18.0000 18.0000 18.0000
   2  18.0000 18.0000 18.0000 17.9999 17.9999 17.9999 17.9999 17.9999 18.0000 18.0000 18.0000 18.0000 18.0000 18.0000 18.0000
      18.0000 18.0000 18.0000 18.0000 18.0000 18.0000 18.0000 18.0000 18.0000 18.0000
   3  18.0000 18.0000 17.9999 17.9995 17.9994 17.9992 17.9994 17.9995 17.9999 18.0000 18.0000 18.0000 18.0000 18.0000 18.0000
      18.0000 18.0000 18.0000 18.0000 18.0000 18.0000 18.0000 18.0000 18.0000 18.0000
   4  18.0000 17.9999 17.9995 17.9993 17.9987 17.9971 17.9987 17.9993 17.9995 17.9999 18.0000 18.0000 18.0000 18.0000 18.0000
      18.0000 18.0000 18.0000 18.0000 18.0000 18.0000 18.0000 18.0000 18.0000 18.0000
   5  18.0000 17.9999 17.9994 17.9987 17.9951 17.9784 17.9951 17.9987 17.9994 17.9999 18.0000 18.0000 18.0000 18.0000 18.0000
      18.0000 18.0000 18.0000 18.0000 18.0000 18.0000 18.0000 18.0000 18.0000 18.0000
   6  18.0000 17.9999 17.9992 17.9971 17.9784 17.8357 17.9784 17.9971 17.9992 17.9999 18.0000 18.0000 18.0000 18.0000 18.0000
      18.0000 18.0000 18.0000 18.0000 18.0000 18.0000 18.0000 18.0000 18.0000 18.0000
   7  18.0000 17.9999 17.9994 17.9987 17.9951 17.9784 17.9951 17.9987 17.9994 17.9999 18.0000 18.0000 18.0000 18.0000 18.0000
      18.0000 18.0000 18.0000 18.0000 18.0000 18.0000 18.0000 18.0000 18.0000 18.0000
   8  18.0000 17.9999 17.9995 17.9993 17.9987 17.9971 17.9987 17.9993 17.9995 17.9999 18.0000 18.0000 18.0000 18.0000 18.0000
      18.0000 18.0000 18.0000 18.0000 18.0000 18.0000 18.0000 18.0000 18.0000 18.0000
   9  18.0000 18.0000 17.9999 17.9995 17.9994 17.9992 17.9994 17.9995 17.9999 18.0000 18.0000 17.9999 17.9999 17.9999 18.0000
      18.0000 18.0000 18.0000 18.0000 18.0000 18.0000 18.0000 18.0000 18.0000 18.0000
  10  18.0000 18.0000 18.0000 17.9999 17.9999 17.9999 17.9999 17.9999 18.0000 18.0000 17.9999 17.9993 17.9991 17.9993 17.9999
      18.0000 18.0000 18.0000 18.0000 18.0000 18.0000 18.0000 18.0000 18.0000 18.0000
  11  18.0000 18.0000 18.0000 18.0000 18.0000 18.0000 18.0000 18.0000 18.0000 17.9999 17.9997 17.9987 17.9970 17.9987 17.9997
      17.9999 18.0000 18.0000 18.0000 18.0000 18.0000 18.0000 18.0000 18.0000 18.0000
  12  18.0000 18.0000 18.0000 18.0000 18.0000 18.0000 18.0000 18.0000 17.9999 17.9993 17.9987 17.9949 17.9783 17.9949 17.9987
      17.9993 17.9999 18.0000 18.0000 18.0000 18.0000 18.0000 18.0000 18.0000 18.0000
  13  18.0000 18.0000 18.0000 18.0000 18.0000 18.0000 18.0000 18.0000 17.9999 17.9991 17.9970 17.9783 17.8356 17.9783 17.9970
      17.9991 17.9999 18.0000 18.0000 18.0000 18.0000 18.0000 18.0000 18.0000 18.0000
  14  18.0000 18.0000 18.0000 18.0000 18.0000 18.0000 18.0000 18.0000 17.9999 17.9993 17.9987 17.9949 17.9783 17.9949 17.9987
      17.9993 17.9999 18.0000 18.0000 18.0000 18.0000 18.0000 18.0000 18.0000 18.0000
  15  18.0000 18.0000 18.0000 18.0000 18.0000 18.0000 18.0000 18.0000 18.0000 17.9999 17.9997 17.9987 17.9970 17.9987 17.9997
      17.9999 18.0000 18.0000 18.0000 18.0000 18.0000 18.0000 18.0000 18.0000 18.0000
  16  18.0000 18.0000 18.0000 18.0000 18.0000 18.0000 18.0000 18.0000 18.0000 18.0000 17.9999 17.9993 17.9991 17.9993 17.9999
      18.0000 18.0000 17.9999 17.9999 17.9999 17.9999 17.9999 18.0000 18.0000 18.0000
  17  18.0000 18.0000 18.0000 18.0000 18.0000 18.0000 18.0000 18.0000 18.0000 18.0000 18.0000 17.9999 17.9999 17.9999 18.0000
      18.0000 17.9999 17.9995 17.9994 17.9992 17.9994 17.9995 17.9999 18.0000 18.0000
  18  18.0000 18.0000 18.0000 18.0000 18.0000 18.0000 18.0000 18.0000 18.0000 18.0000 18.0000 18.0000 18.0000 18.0000 18.0000
      17.9999 17.9995 17.9993 17.9987 17.9971 17.9987 17.9993 17.9995 17.9999 18.0000
  19  18.0000 18.0000 18.0000 18.0000 18.0000 18.0000 18.0000 18.0000 18.0000 18.0000 18.0000 18.0000 18.0000 18.0000 18.0000
      17.9999 17.9994 17.9987 17.9951 17.9784 17.9951 17.9987 17.9994 17.9999 18.0000
  20  18.0000 18.0000 18.0000 18.0000 18.0000 18.0000 18.0000 18.0000 18.0000 18.0000 18.0000 18.0000 18.0000 18.0000 18.0000
      17.9999 17.9992 17.9971 17.9784 17.8357 17.9784 17.9971 17.9992 17.9999 18.0000
  21  18.0000 18.0000 18.0000 18.0000 18.0000 18.0000 18.0000 18.0000 18.0000 18.0000 18.0000 18.0000 18.0000 18.0000 18.0000
      17.9999 17.9994 17.9987 17.9951 17.9784 17.9951 17.9987 17.9994 17.9999 18.0000
  22  18.0000 18.0000 18.0000 18.0000 18.0000 18.0000 18.0000 18.0000 18.0000 18.0000 18.0000 18.0000 18.0000 18.0000 18.0000
      17.9999 17.9995 17.9993 17.9987 17.9971 17.9987 17.9993 17.9995 17.9999 18.0000
  23  18.0000 18.0000 18.0000 18.0000 18.0000 18.0000 18.0000 18.0000 18.0000 18.0000 18.0000 18.0000 18.0000 18.0000 18.0000
      18.0000 17.9999 17.9995 17.9994 17.9992 17.9994 17.9995 17.9999 18.0000 18.0000
  24  18.0000 18.0000 18.0000 18.0000 18.0000 18.0000 18.0000 18.0000 18.0000 18.0000 18.0000 18.0000 18.0000 18.0000 18.0000
      18.0000 18.0000 17.9999 17.9999 17.9999 17.9999 17.9999 18.0000 18.0000 18.0000
  25  18.0000 18.0000 18.0000 18.0000 18.0000 18.0000 18.0000 18.0000 18.0000 18.0000 18.0000 18.0000 18.0000 18.0000 18.0000
      18.0000 18.0000 18.0000 18.0000 18.0000 18.0000 18.0000 18.0000 18.0000 18.0000
1
              HEAD IN LAYER   2 AT END OF TIME STEP   3 IN STRESS PERIOD    1
  ---------------------------------------------------------------------------

           1       2       3       4       5       6       7       8       9      10      11      12      13      14      15
          16      17      18      19      20      21      22      23      24      25
 ...........................................................................................................................
   1  18.0000 18.0000 18.0000 18.0000 18.0000 18.0000 18.0000 18.0000 18.0000 18.0000 18.0000 18.0000 18.0000 18.0000 18.0000
      18.0000 18.0000 18.0000 18.0000 18.0000 18.0000 18.0000 18.0000 18.0000 18.0000
   2  18.0000 18.0000 18.0000 17.9999 17.9999 17.9999 17.9999 17.9999 18.0000 18.0000 18.0000 18.0000 18.0000 18.0000 18.0000
      18.0000 18.0000 18.0000 18.0000 18.0000 18.0000 18.0000 18.0000 18.0000 18.0000
   3  18.0000 18.0000 17.9998 17.9995 17.9993 17.9991 17.9993 17.9995 17.9998 18.0000 18.0000 18.0000 18.0000 18.0000 18.0000
      18.0000 18.0000 18.0000 18.0000 18.0000 18.0000 18.0000 18.0000 18.0000 18.0000
   4  18.0000 17.9999 17.9995 17.9992 17.9984 17.9959 17.9984 17.9992 17.9995 17.9999 18.0000 18.0000 18.0000 18.0000 18.0000
      18.0000 18.0000 18.0000 18.0000 18.0000 18.0000 18.0000 18.0000 18.0000 18.0000
   5  18.0000 17.9999 17.9993 17.9984 17.9927 17.9678 17.9927 17.9984 17.9993 17.9999 18.0000 18.0000 18.0000 18.0000 18.0000
      18.0000 18.0000 18.0000 18.0000 18.0000 18.0000 18.0000 18.0000 18.0000 18.0000
   6  18.0000 17.9999 17.9991 17.9959 17.9678 17.7208 17.9678 17.9959 17.9991 17.9999 18.0000 18.0000 18.0000 18.0000 18.0000
      18.0000 18.0000 18.0000 18.0000 18.0000 18.0000 18.0000 18.0000 18.0000 18.0000
   7  18.0000 17.9999 17.9993 17.9984 17.9927 17.9678 17.9927 17.9984 17.9993 17.9999 18.0000 18.0000 18.0000 18.0000 18.0000
      18.0000 18.0000 18.0000 18.0000 18.0000 18.0000 18.0000 18.0000 18.0000 18.0000
   8  18.0000 17.9999 17.9995 17.9992 17.9984 17.9959 17.9984 17.9992 17.9995 17.9999 18.0000 18.0000 18.0000 18.0000 18.0000
      18.0000 18.0000 18.0000 18.0000 18.0000 18.0000 18.0000 18.0000 18.0000 18.0000
   9  18.0000 18.0000 17.9998 17.9995 17.9993 17.9991 17.9993 17.9995 17.9998 18.0000 18.0000 17.9999 17.9998 17.9999 18.0000
      18.0000 18.0000 18.0000 18.0000 18.0000 18.0000 18.0000 18.0000 18.0000 18.0000
  10  18.0000 18.0000 18.0000 17.9999 17.9999 17.9999 17.9999 17.9999 18.0000 18.0000 17.9998 17.9993 17.9990 17.9993 17.9998
      17.9999 18.0000 18.0000 18.0000 18.0000 18.0000 18.0000 18.0000 18.0000 18.0000
  11  18.0000 18.0000 18.0000 18.0000 18.0000 18.0000 18.0000 18.0000 18.0000 17.9998 17.9996 17.9983 17.9958 17.9983 17.9996
      17.9998 18.0000 18.0000 18.0000 18.0000 18.0000 18.0000 18.0000 18.0000 18.0000
  12  18.0000 18.0000 18.0000 18.0000 18.0000 18.0000 18.0000 18.0000 17.9999 17.9993 17.9983 17.9925 17.9677 17.9925 17.9983
      17.9993 17.9999 18.0000 18.0000 18.0000 18.0000 18.0000 18.0000 18.0000 18.0000
  13  18.0000 18.0000 18.0000 18.0000 18.0000 18.0000 18.0000 18.0000 17.9998 17.9990 17.9958 17.9677 17.7206 17.9677 17.9958
      17.9990 17.9998 18.0000 18.0000 18.0000 18.0000 18.0000 18.0000 18.0000 18.0000
  14  18.0000 18.0000 18.0000 18.0000 18.0000 18.0000 18.0000 18.0000 17.9999 17.9993 17.9983 17.9925 17.9677 17.9925 17.9983
      17.9993 17.9999 18.0000 18.0000 18.0000 18.0000 18.0000 18.0000 18.0000 18.0000
  15  18.0000 18.0000 18.0000 18.0000 18.0000 18.0000 18.0000 18.0000 18.0000 17.9998 17.9996 17.9983 17.9958 17.9983 17.9996
      17.9998 18.0000 18.0000 18.0000 18.0000 18.0000 18.0000 18.0000 18.0000 18.0000
  16  18.0000 18.0000 18.0000 18.0000 18.0000 18.0000 18.0000 18.0000 18.0000 17.9999 17.9998 17.9993 17.9990 17.9993 17.9998
      18.0000 18.0000 17.9999 17.9999 17.9999 17.9999 17.9999 18.0000 18.0000 18.0000
  17  18.0000 18.0000 18.0000 18.0000 18.0000 18.0000 18.0000 18.0000 18.0000 18.0000 18.0000 17.9999 17.9998 17.9999 18.0000
      18.0000 17.9998 17.9995 17.9993 17.9991 17.9993 17.9995 17.9998 18.0000 18.0000
  18  18.0000 18.0000 18.0000 18.0000 18.0000 18.0000 18.0000 18.0000 18.0000 18.0000 18.0000 18.0000 18.0000 18.0000 18.0000
      17.9999 17.9995 17.9992 17.9984 17.9959 17.9984 17.9992 17.9995 17.9999 18.0000
  19  18.0000 18.0000 18.0000 18.0000 18.0000 18.0000 18.0000 18.0000 18.0000 18.0000 18.0000 18.0000 18.0000 18.0000 18.0000
      17.9999 17.9993 17.9984 17.9927 17.9678 17.9927 17.9984 17.9993 17.9999 18.0000
  20  18.0000 18.0000 18.0000 18.0000 18.0000 18.0000 18.0000 18.0000 18.0000 18.0000 18.0000 18.0000 18.0000 18.0000 18.0000
      17.9999 17.9991 17.9959 17.9678 17.7208 17.9678 17.9959 17.9991 17.9999 18.0000
  21  18.0000 18.0000 18.0000 18.0000 18.0000 18.0000 18.0000 18.0000 18.0000 18.0000 18.0000 18.0000 18.0000 18.0000 18.0000
      17.9999 17.9993 17.9984 17.9927 17.9678 17.9927 17.9984 17.9993 17.9999 18.0000
  22  18.0000 18.0000 18.0000 18.0000 18.0000 18.0000 18.0000 18.0000 18.0000 18.0000 18.0000 18.0000 18.0000 18.0000 18.0000
      17.9999 17.9995 17.9992 17.9984 17.9959 17.9984 17.9992 17.9995 17.9999 18.0000
  23  18.0000 18.0000 18.0000 18.0000 18.0000 18.0000 18.0000 18.0000 18.0000 18.0000 18.0000 18.0000 18.0000 18.0000 18.0000
      18.0000 17.9998 17.9995 17.9993 17.9991 17.9993 17.9995 17.9998 18.0000 18.0000
  24  18.0000 18.0000 18.0000 18.0000 18.0000 18.0000 18.0000 18.0000 18.0000 18.0000 18.0000 18.0000 18.0000 18.0000 18.0000
      18.0000 18.0000 17.9999 17.9999 17.9999 17.9999 17.9999 18.0000 18.0000 18.0000
  25  18.0000 18.0000 18.0000 18.0000 18.0000 18.0000 18.0000 18.0000 18.0000 18.0000 18.0000 18.0000 18.0000 18.0000 18.0000
      18.0000 18.0000 18.0000 18.0000 18.0000 18.0000 18.0000 18.0000 18.0000 18.0000

 HEAD WILL BE SAVED ON UNIT   16 AT END OF TIME STEP    3, STRESS PERIOD    1



         TIME SUMMARY AT END OF TIME STEP    3 IN STRESS PERIOD    1
                    SECONDS     MINUTES      HOURS       DAYS        YEARS
                    -----------------------------------------------------------
   TIME STEP LENGTH  86400.      1440.0      24.000      1.0000     2.73785E-03
 STRESS PERIOD TIME 2.59200E+05  4320.0      72.000      3.0000     8.21355E-03
         TOTAL TIME 2.59200E+05  4320.0      72.000      3.0000     8.21355E-03
1

 SOLVING FOR HEAD 
     2 CALLS TO PCG ROUTINE FOR TIME STEP   4 IN STRESS PERIOD    1
     3 TOTAL ITERATIONS
     1 CALLS TO PCG ROUTINE FOR TIME STEP   4 IN STRESS PERIOD    1
     1 TOTAL ITERATIONS

 OUTPUT CONTROL FOR STRESS PERIOD    1   TIME STEP    4
    PRINT HEAD FOR ALL LAYERS
    SAVE HEAD FOR ALL LAYERS
    SAVE BUDGET
 UBDSV1 SAVING "         STORAGE" ON UNIT  20 AT TIME STEP  4, STRESS PERIOD   1
 UBDSV2 SAVING "   CONSTANT HEAD" ON UNIT  20 AT TIME STEP  4, STRESS PERIOD   1
 UBDSV1 SAVING "FLOW RIGHT FACE " ON UNIT  20 AT TIME STEP  4, STRESS PERIOD   1
 UBDSV1 SAVING "FLOW FRONT FACE " ON UNIT  20 AT TIME STEP  4, STRESS PERIOD   1
 UBDSV1 SAVING "FLOW LOWER FACE " ON UNIT  20 AT TIME STEP  4, STRESS PERIOD   1
1
              HEAD IN LAYER   1 AT END OF TIME STEP   4 IN STRESS PERIOD    1
  ---------------------------------------------------------------------------

           1       2       3       4       5       6       7       8       9      10      11      12      13      14      15
          16      17      18      19      20      21      22      23      24      25
 ...........................................................................................................................
   1  18.0000 18.0000 18.0000 18.0000 18.0000 18.0000 18.0000 18.0000 18.0000 18.0000 18.0000 18.0000 18.0000 18.0000 18.0000
      18.0000 18.0000 18.0000 18.0000 18.0000 18.0000 18.0000 18.0000 18.0000 18.0000
   2  18.0000 18.0000 18.0000 17.9999 17.9999 17.9999 17.9999 17.9999 18.0000 18.0000 18.0000 18.0000 18.0000 18.0000 18.0000
      18.0000 18.0000 18.0000 18.0000 18.0000 18.0000 18.0000 18.0000 18.0000 18.0000
   3  18.0000 18.0000 17.9999 17.9998 17.9996 17.9994 17.9996 17.9998 17.9999 18.0000 18.0000 18.0000 18.0000 18.0000 18.0000
      18.0000 18.0000 18.0000 18.0000 18.0000 18.0000 18.0000 18.0000 18.0000 18.0000
   4  18.0000 17.9999 17.9998 17.9995 17.9986 17.9962 17.9986 17.9995 17.9998 17.9999 18.0000 18.0000 18.0000 18.0000 18.0000
      18.0000 18.0000 18.0000 18.0000 18.0000 18.0000 18.0000 18.0000 18.0000 18.0000
   5  18.0000 17.9999 17.9996 17.9986 17.9929 17.9703 17.9929 17.9986 17.9996 17.9999 18.0000 18.0000 18.0000 18.0000 18.0000
      18.0000 18.0000 18.0000 18.0000 18.0000 18.0000 18.0000 18.0000 18.0000 18.0000
   6  18.0000 17.9999 17.9994 17.9962 17.9703 17.7965 17.9703 17.9962 17.9994 17.9999 18.0000 18.0000 18.0000 18.0000 18.0000
      18.0000 18.0000 18.0000 18.0000 18.0000 18.0000 18.0000 18.0000 18.0000 18.0000
   7  18.0000 17.9999 17.9996 17.9986 17.9929 17.9703 17.9929 17.9986 17.9996 17.9999 18.0000 18.0000 18.0000 18.0000 18.0000
      18.0000 18.0000 18.0000 18.0000 18.0000 18.0000 18.0000 18.0000 18.0000 18.0000
   8  18.0000 17.9999 17.9998 17.9995 17.9986 17.9962 17.9986 17.9995 17.9998 17.9999 18.0000 17.9999 17.9999 17.9999 18.0000
      18.0000 18.0000 18.0000 18.0000 18.0000 18.0000 18.0000 18.0000 18.0000 18.0000
   9  18.0000 18.0000 17.9999 17.9998 17.9996 17.9994 17.9996 17.9998 17.9999 18.0000 18.0000 17.9999 17.9998 17.9999 18.0000
      18.0000 18.0000 18.0000 18.0000 18.0000 18.0000 18.0000 18.0000 18.0000 18.0000
  10  18.0000 18.0000 18.0000 17.9999 17.9999 17.9999 17.9999 17.9999 18.0000 18.0000 17.9999 17.9997 17.9994 17.9997 17.9999
      18.0000 18.0000 18.0000 18.0000 18.0000 18.0000 18.0000 18.0000 18.0000 18.0000
  11  18.0000 18.0000 18.0000 18.0000 18.0000 18.0000 18.0000 18.0000 18.0000 17.9999 17.9996 17.9987 17.9962 17.9987 17.9996
      17.9999 18.0000 18.0000 18.0000 18.0000 18.0000 18.0000 18.0000 18.0000 18.0000
  12  18.0000 18.0000 18.0000 18.0000 18.0000 18.0000 18.0000 17.9999 17.9999 17.9997 17.9987 17.9929 17.9702 17.9929 17.9987
      17.9997 17.9999 18.0000 18.0000 18.0000 18.0000 18.0000 18.0000 18.0000 18.0000
  13  18.0000 18.0000 18.0000 18.0000 18.0000 18.0000 18.0000 17.9999 17.9998 17.9994 17.9962 17.9702 17.7964 17.9702 17.9962
      17.9994 17.9998 18.0000 18.0000 18.0000 18.0000 18.0000 18.0000 18.0000 18.0000
  14  18.0000 18.0000 18.0000 18.0000 18.0000 18.0000 18.0000 17.9999 17.9999 17.9997 17.9987 17.9929 17.9702 17.9929 17.9987
      17.9997 17.9999 18.0000 18.0000 18.0000 18.0000 18.0000 18.0000 18.0000 18.0000
  15  18.0000 18.0000 18.0000 18.0000 18.0000 18.0000 18.0000 18.0000 18.0000 17.9999 17.9996 17.9987 17.9962 17.9987 17.9996
      17.9999 18.0000 18.0000 18.0000 18.0000 18.0000 18.0000 18.0000 18.0000 18.0000
  16  18.0000 18.0000 18.0000 18.0000 18.0000 18.0000 18.0000 18.0000 18.0000 18.0000 17.9999 17.9997 17.9994 17.9997 17.9999
      18.0000 18.0000 17.9999 17.9999 17.9999 17.9999 17.9999 18.0000 18.0000 18.0000
  17  18.0000 18.0000 18.0000 18.0000 18.0000 18.0000 18.0000 18.0000 18.0000 18.0000 18.0000 17.9999 17.9998 17.9999 18.0000
      18.0000 17.9999 17.9998 17.9996 17.9994 17.9996 17.9998 17.9999 18.0000 18.0000
  18  18.0000 18.0000 18.0000 18.0000 18.0000 18.0000 18.0000 18.0000 18.0000 18.0000 18.0000 18.0000 18.0000 18.0000 18.0000
      17.9999 17.9998 17.9995 17.9986 17.9962 17.9986 17.9995 17.9998 17.9999 18.0000
  19  18.0000 18.0000 18.0000 18.0000 18.0000 18.0000 18.0000 18.0000 18.0000 18.0000 18.0000 18.0000 18.0000 18.0000 18.0000
      17.9999 17.9996 17.9986 17.9929 17.9703 17.9929 17.9986 17.9996 17.9999 18.0000
  20  18.0000 18.0000 18.0000 18.0000 18.0000 18.0000 18.0000 18.0000 18.0000 18.0000 18.0000 18.0000 18.0000 18.0000 18.0000
      17.9999 17.9994 17.9962 17.9703 17.7965 17.9703 17.9962 17.9994 17.9999 18.0000
  21  18.0000 18.0000 18.0000 18.0000 18.0000 18.0000 18.0000 18.0000 18.0000 18.0000 18.0000 18.0000 18.0000 18.0000 18.0000
      17.9999 17.9996 17.9986 17.9929 17.9703 17.9929 17.9986 17.9996 17.9999 18.0000
  22  18.0000 18.0000 18.0000 18.0000 18.0000 18.0000 18.0000 18.0000 18.0000 18.0000 18.0000 18.0000 18.0000 18.0000 18.0000
      17.9999 17.9998 17.9995 17.9986 17.9962 17.9986 17.9995 17.9998 17.9999 18.0000
  23  18.0000 18.0000 18.0000 18.0000 18.0000 18.0000 18.0000 18.0000 18.0000 18.0000 18.0000 18.0000 18.0000 18.0000 18.0000
      18.0000 17.9999 17.9998 17.9996 17.9994 17.9996 17.9998 17.9999 18.0000 18.0000
  24  18.0000 18.0000 18.0000 18.0000 18.0000 18.0000 18.0000 18.0000 18.0000 18.0000 18.0000 18.0000 18.0000 18.0000 18.0000
      18.0000 18.0000 17.9999 17.9999 17.9999 17.9999 17.9999 18.0000 18.0000 18.0000
  25  18.0000 18.0000 18.0000 18.0000 18.0000 18.0000 18.0000 18.0000 18.0000 18.0000 18.0000 18.0000 18.0000 18.0000 18.0000
      18.0000 18.0000 18.0000 18.0000 18.0000 18.0000 18.0000 18.0000 18.0000 18.0000
1
              HEAD IN LAYER   2 AT END OF TIME STEP   4 IN STRESS PERIOD    1
  ---------------------------------------------------------------------------

           1       2       3       4       5       6       7       8       9      10      11      12      13      14      15
          16      17      18      19      20      21      22      23      24      25
 ...........................................................................................................................
   1  18.0000 18.0000 18.0000 18.0000 18.0000 18.0000 18.0000 18.0000 18.0000 18.0000 18.0000 18.0000 18.0000 18.0000 18.0000
      18.0000 18.0000 18.0000 18.0000 18.0000 18.0000 18.0000 18.0000 18.0000 18.0000
   2  18.0000 18.0000 18.0000 17.9999 17.9999 17.9998 17.9999 17.9999 18.0000 18.0000 18.0000 18.0000 18.0000 18.0000 18.0000
      18.0000 18.0000 18.0000 18.0000 18.0000 18.0000 18.0000 18.0000 18.0000 18.0000
   3  18.0000 18.0000 17.9999 17.9997 17.9995 17.9992 17.9995 17.9997 17.9999 18.0000 18.0000 18.0000 18.0000 18.0000 18.0000
      18.0000 18.0000 18.0000 18.0000 18.0000 18.0000 18.0000 18.0000 18.0000 18.0000
   4  18.0000 17.9999 17.9997 17.9994 17.9981 17.9947 17.9981 17.9994 17.9997 17.9999 18.0000 18.0000 18.0000 18.0000 18.0000
      18.0000 18.0000 18.0000 18.0000 18.0000 18.0000 18.0000 18.0000 18.0000 18.0000
   5  18.0000 17.9999 17.9995 17.9981 17.9901 17.9593 17.9901 17.9981 17.9995 17.9999 18.0000 18.0000 18.0000 18.0000 18.0000
      18.0000 18.0000 18.0000 18.0000 18.0000 18.0000 18.0000 18.0000 18.0000 18.0000
   6  18.0000 17.9998 17.9992 17.9947 17.9593 17.6877 17.9593 17.9947 17.9992 17.9998 18.0000 18.0000 18.0000 18.0000 18.0000
      18.0000 18.0000 18.0000 18.0000 18.0000 18.0000 18.0000 18.0000 18.0000 18.0000
   7  18.0000 17.9999 17.9995 17.9981 17.9901 17.9593 17.9901 17.9981 17.9995 17.9999 18.0000 18.0000 18.0000 18.0000 18.0000
      18.0000 18.0000 18.0000 18.0000 18.0000 18.0000 18.0000 18.0000 18.0000 18.0000
   8  18.0000 17.9999 17.9997 17.9994 17.9981 17.9947 17.9981 17.9994 17.9997 17.9999 18.0000 17.9999 17.9999 17.9999 18.0000
      18.0000 18.0000 18.0000 18.0000 18.0000 18.0000 18.0000 18.0000 18.0000 18.0000
   9  18.0000 18.0000 17.9999 17.9997 17.9995 17.9992 17.9995 17.9997 17.9999 18.0000 18.0000 17.9999 17.9998 17.9999 17.9999
      18.0000 18.0000 18.0000 18.0000 18.0000 18.0000 18.0000 18.0000 18.0000 18.0000
  10  18.0000 18.0000 18.0000 17.9999 17.9999 17.9998 17.9999 17.9999 18.0000 17.9999 17.9998 17.9996 17.9992 17.9996 17.9998
      17.9999 18.0000 18.0000 18.0000 18.0000 18.0000 18.0000 18.0000 18.0000 18.0000
  11  18.0000 18.0000 18.0000 18.0000 18.0000 18.0000 18.0000 18.0000 18.0000 17.9998 17.9995 17.9981 17.9947 17.9981 17.9995
      17.9998 17.9999 18.0000 18.0000 18.0000 18.0000 18.0000 18.0000 18.0000 18.0000
  12  18.0000 18.0000 18.0000 18.0000 18.0000 18.0000 18.0000 17.9999 17.9999 17.9996 17.9981 17.9901 17.9593 17.9901 17.9981
      17.9996 17.9999 18.0000 18.0000 18.0000 18.0000 18.0000 18.0000 18.0000 18.0000
  13  18.0000 18.0000 18.0000 18.0000 18.0000 18.0000 18.0000 17.9999 17.9998 17.9992 17.9947 17.9593 17.6876 17.9593 17.9947
      17.9992 17.9998 18.0000 18.0000 18.0000 18.0000 18.0000 18.0000 18.0000 18.0000
  14  18.0000 18.0000 18.0000 18.0000 18.0000 18.0000 18.0000 17.9999 17.9999 17.9996 17.9981 17.9901 17.9593 17.9901 17.9981
      17.9996 17.9999 18.0000 18.0000 18.0000 18.0000 18.0000 18.0000 18.0000 18.0000
  15  18.0000 18.0000 18.0000 18.0000 18.0000 18.0000 18.0000 18.0000 17.9999 17.9998 17.9995 17.9981 17.9947 17.9981 17.9995
      17.9998 18.0000 18.0000 18.0000 18.0000 18.0000 18.0000 18.0000 18.0000 18.0000
  16  18.0000 18.0000 18.0000 18.0000 18.0000 18.0000 18.0000 18.0000 18.0000 17.9999 17.9998 17.9996 17.9992 17.9996 17.9998
      17.9999 18.0000 17.9999 17.9999 17.9998 17.9999 17.9999 18.0000 18.0000 18.0000
  17  18.0000 18.0000 18.0000 18.0000 18.0000 18.0000 18.0000 18.0000 18.0000 18.0000 17.9999 17.9999 17.9998 17.9999 18.0000
      18.0000 17.9999 17.9997 17.9995 17.9992 17.9995 17.9997 17.9999 18.0000 18.0000
  18  18.0000 18.0000 18.0000 18.0000 18.0000 18.0000 18.0000 18.0000 18.0000 18.0000 18.0000 18.0000 18.0000 18.0000 18.0000
      17.9999 17.9997 17.9994 17.9981 17.9947 17.9981 17.9994 17.9997 17.9999 18.0000
  19  18.0000 18.0000 18.0000 18.0000 18.0000 18.0000 18.0000 18.0000 18.0000 18.0000 18.0000 18.0000 18.0000 18.0000 18.0000
      17.9999 17.9995 17.9981 17.9901 17.9593 17.9901 17.9981 17.9995 17.9999 18.0000
  20  18.0000 18.0000 18.0000 18.0000 18.0000 18.0000 18.0000 18.0000 18.0000 18.0000 18.0000 18.0000 18.0000 18.0000 18.0000
      17.9998 17.9992 17.9947 17.9593 17.6877 17.9593 17.9947 17.9992 17.9998 18.0000
  21  18.0000 18.0000 18.0000 18.0000 18.0000 18.0000 18.0000 18.0000 18.0000 18.0000 18.0000 18.0000 18.0000 18.0000 18.0000
      17.9999 17.9995 17.9981 17.9901 17.9593 17.9901 17.9981 17.9995 17.9999 18.0000
  22  18.0000 18.0000 18.0000 18.0000 18.0000 18.0000 18.0000 18.0000 18.0000 18.0000 18.0000 18.0000 18.0000 18.0000 18.0000
      17.9999 17.9997 17.9994 17.9981 17.9947 17.9981 17.9994 17.9997 17.9999 18.0000
  23  18.0000 18.0000 18.0000 18.0000 18.0000 18.0000 18.0000 18.0000 18.0000 18.0000 18.0000 18.0000 18.0000 18.0000 18.0000
      18.0000 17.9999 17.9997 17.9995 17.9992 17.9995 17.9997 17.9999 18.0000 18.0000
  24  18.0000 18.0000 18.0000 18.0000 18.0000 18.0000 18.0000 18.0000 18.0000 18.0000 18.0000 18.0000 18.0000 18.0000 18.0000
      18.0000 18.0000 17.9999 17.9999 17.9998 17.9999 17.9999 18.0000 18.0000 18.0000
  25  18.0000 18.0000 18.0000 18.0000 18.0000 18.0000 18.0000 18.0000 18.0000 18.0000 18.0000 18.0000 18.0000 18.0000 18.0000
      18.0000 18.0000 18.0000 18.0000 18.0000 18.0000 18.0000 18.0000 18.0000 18.0000

 HEAD WILL BE SAVED ON UNIT   16 AT END OF TIME STEP    4, STRESS PERIOD    1



         TIME SUMMARY AT END OF TIME STEP    4 IN STRESS PERIOD    1
                    SECONDS     MINUTES      HOURS       DAYS        YEARS
                    -----------------------------------------------------------
   TIME STEP LENGTH  86400.      1440.0      24.000      1.0000     2.73785E-03
 STRESS PERIOD TIME 3.45600E+05  5760.0      96.000      4.0000     1.09514E-02
         TOTAL TIME 3.45600E+05  5760.0      96.000      4.0000     1.09514E-02
1

 SOLVING FOR HEAD 
     2 CALLS TO PCG ROUTINE FOR TIME STEP   5 IN STRESS PERIOD    1
     3 TOTAL ITERATIONS
     1 CALLS TO PCG ROUTINE FOR TIME STEP   5 IN STRESS PERIOD    1
     1 TOTAL ITERATIONS

 OUTPUT CONTROL FOR STRESS PERIOD    1   TIME STEP    5
    PRINT HEAD FOR ALL LAYERS
    SAVE HEAD FOR ALL LAYERS
    SAVE BUDGET
 UBDSV1 SAVING "         STORAGE" ON UNIT  20 AT TIME STEP  5, STRESS PERIOD   1
 UBDSV2 SAVING "   CONSTANT HEAD" ON UNIT  20 AT TIME STEP  5, STRESS PERIOD   1
 UBDSV1 SAVING "FLOW RIGHT FACE " ON UNIT  20 AT TIME STEP  5, STRESS PERIOD   1
 UBDSV1 SAVING "FLOW FRONT FACE " ON UNIT  20 AT TIME STEP  5, STRESS PERIOD   1
 UBDSV1 SAVING "FLOW LOWER FACE " ON UNIT  20 AT TIME STEP  5, STRESS PERIOD   1
1
              HEAD IN LAYER   1 AT END OF TIME STEP   5 IN STRESS PERIOD    1
  ---------------------------------------------------------------------------

           1       2       3       4       5       6       7       8       9      10      11      12      13      14      15
          16      17      18      19      20      21      22      23      24      25
 ...........................................................................................................................
   1  18.0000 18.0000 18.0000 18.0000 18.0000 18.0000 18.0000 18.0000 18.0000 18.0000 18.0000 18.0000 18.0000 18.0000 18.0000
      18.0000 18.0000 18.0000 18.0000 18.0000 18.0000 18.0000 18.0000 18.0000 18.0000
   2  18.0000 18.0000 18.0000 17.9999 17.9999 17.9999 17.9999 17.9999 18.0000 18.0000 18.0000 18.0000 18.0000 18.0000 18.0000
      18.0000 18.0000 18.0000 18.0000 18.0000 18.0000 18.0000 18.0000 18.0000 18.0000
   3  18.0000 18.0000 17.9999 18.0000 17.9998 17.9994 17.9998 18.0000 17.9999 18.0000 18.0000 18.0000 18.0000 18.0000 18.0000
      18.0000 18.0000 18.0000 18.0000 18.0000 18.0000 18.0000 18.0000 18.0000 18.0000
   4  18.0000 17.9999 18.0000 17.9996 17.9983 17.9950 17.9983 17.9996 18.0000 17.9999 18.0000 18.0000 18.0000 18.0000 18.0000
      18.0000 18.0000 18.0000 18.0000 18.0000 18.0000 18.0000 18.0000 18.0000 18.0000
   5  18.0000 17.9999 17.9998 17.9983 17.9904 17.9619 17.9904 17.9983 17.9998 17.9999 18.0000 18.0000 18.0000 18.0000 18.0000
      18.0000 18.0000 18.0000 18.0000 18.0000 18.0000 18.0000 18.0000 18.0000 18.0000
   6  18.0000 17.9999 17.9994 17.9950 17.9619 17.7625 17.9619 17.9950 17.9994 17.9999 18.0000 18.0000 18.0000 18.0000 18.0000
      18.0000 18.0000 18.0000 18.0000 18.0000 18.0000 18.0000 18.0000 18.0000 18.0000
   7  18.0000 17.9999 17.9998 17.9983 17.9904 17.9619 17.9904 17.9983 17.9998 17.9999 18.0000 18.0000 18.0000 18.0000 18.0000
      18.0000 18.0000 18.0000 18.0000 18.0000 18.0000 18.0000 18.0000 18.0000 18.0000
   8  18.0000 17.9999 18.0000 17.9996 17.9983 17.9950 17.9983 17.9996 18.0000 17.9999 18.0000 18.0000 18.0000 18.0000 18.0000
      18.0000 18.0000 18.0000 18.0000 18.0000 18.0000 18.0000 18.0000 18.0000 18.0000
   9  18.0000 18.0000 17.9999 18.0000 17.9998 17.9994 17.9998 18.0000 17.9999 18.0000 18.0000 17.9999 17.9998 17.9999 17.9999
      18.0000 18.0000 18.0000 18.0000 18.0000 18.0000 18.0000 18.0000 18.0000 18.0000
  10  18.0000 18.0000 18.0000 17.9999 17.9999 17.9999 17.9999 17.9999 18.0000 18.0000 17.9999 18.0000 17.9996 18.0000 17.9998
      17.9999 18.0000 18.0000 18.0000 18.0000 18.0000 18.0000 18.0000 18.0000 18.0000
  11  18.0000 18.0000 18.0000 18.0000 18.0000 18.0000 18.0000 18.0000 18.0000 17.9999 17.9995 17.9985 17.9951 17.9985 17.9995
      17.9998 17.9999 18.0000 18.0000 18.0000 18.0000 18.0000 18.0000 18.0000 18.0000
  12  18.0000 18.0000 18.0000 18.0000 18.0000 18.0000 18.0000 18.0000 17.9999 18.0000 17.9985 17.9906 17.9620 17.9906 17.9985
      18.0000 17.9999 18.0000 18.0000 18.0000 18.0000 18.0000 18.0000 18.0000 18.0000
  13  18.0000 18.0000 18.0000 18.0000 18.0000 18.0000 18.0000 18.0000 17.9998 17.9996 17.9951 17.9620 17.7627 17.9620 17.9951
      17.9996 17.9998 18.0000 18.0000 18.0000 18.0000 18.0000 18.0000 18.0000 18.0000
  14  18.0000 18.0000 18.0000 18.0000 18.0000 18.0000 18.0000 18.0000 17.9999 18.0000 17.9985 17.9906 17.9620 17.9906 17.9985
      18.0000 17.9999 18.0000 18.0000 18.0000 18.0000 18.0000 18.0000 18.0000 18.0000
  15  18.0000 18.0000 18.0000 18.0000 18.0000 18.0000 18.0000 18.0000 17.9999 17.9998 17.9995 17.9985 17.9951 17.9985 17.9995
      17.9999 18.0000 18.0000 18.0000 18.0000 18.0000 18.0000 18.0000 18.0000 18.0000
  16  18.0000 18.0000 18.0000 18.0000 18.0000 18.0000 18.0000 18.0000 18.0000 17.9999 17.9998 18.0000 17.9996 18.0000 17.9999
      18.0000 18.0000 17.9999 17.9999 17.9999 17.9999 17.9999 18.0000 18.0000 18.0000
  17  18.0000 18.0000 18.0000 18.0000 18.0000 18.0000 18.0000 18.0000 18.0000 18.0000 17.9999 17.9999 17.9998 17.9999 18.0000
      18.0000 17.9999 18.0000 17.9998 17.9994 17.9998 18.0000 17.9999 18.0000 18.0000
  18  18.0000 18.0000 18.0000 18.0000 18.0000 18.0000 18.0000 18.0000 18.0000 18.0000 18.0000 18.0000 18.0000 18.0000 18.0000
      17.9999 18.0000 17.9996 17.9983 17.9950 17.9983 17.9996 18.0000 17.9999 18.0000
  19  18.0000 18.0000 18.0000 18.0000 18.0000 18.0000 18.0000 18.0000 18.0000 18.0000 18.0000 18.0000 18.0000 18.0000 18.0000
      17.9999 17.9998 17.9983 17.9904 17.9619 17.9904 17.9983 17.9998 17.9999 18.0000
  20  18.0000 18.0000 18.0000 18.0000 18.0000 18.0000 18.0000 18.0000 18.0000 18.0000 18.0000 18.0000 18.0000 18.0000 18.0000
      17.9999 17.9994 17.9950 17.9619 17.7625 17.9619 17.9950 17.9994 17.9999 18.0000
  21  18.0000 18.0000 18.0000 18.0000 18.0000 18.0000 18.0000 18.0000 18.0000 18.0000 18.0000 18.0000 18.0000 18.0000 18.0000
      17.9999 17.9998 17.9983 17.9904 17.9619 17.9904 17.9983 17.9998 17.9999 18.0000
  22  18.0000 18.0000 18.0000 18.0000 18.0000 18.0000 18.0000 18.0000 18.0000 18.0000 18.0000 18.0000 18.0000 18.0000 18.0000
      17.9999 18.0000 17.9996 17.9983 17.9950 17.9983 17.9996 18.0000 17.9999 18.0000
  23  18.0000 18.0000 18.0000 18.0000 18.0000 18.0000 18.0000 18.0000 18.0000 18.0000 18.0000 18.0000 18.0000 18.0000 18.0000
      18.0000 17.9999 18.0000 17.9998 17.9994 17.9998 18.0000 17.9999 18.0000 18.0000
  24  18.0000 18.0000 18.0000 18.0000 18.0000 18.0000 18.0000 18.0000 18.0000 18.0000 18.0000 18.0000 18.0000 18.0000 18.0000
      18.0000 18.0000 17.9999 17.9999 17.9999 17.9999 17.9999 18.0000 18.0000 18.0000
  25  18.0000 18.0000 18.0000 18.0000 18.0000 18.0000 18.0000 18.0000 18.0000 18.0000 18.0000 18.0000 18.0000 18.0000 18.0000
      18.0000 18.0000 18.0000 18.0000 18.0000 18.0000 18.0000 18.0000 18.0000 18.0000
1
              HEAD IN LAYER   2 AT END OF TIME STEP   5 IN STRESS PERIOD    1
  ---------------------------------------------------------------------------

           1       2       3       4       5       6       7       8       9      10      11      12      13      14      15
          16      17      18      19      20      21      22      23      24      25
 ...........................................................................................................................
   1  18.0000 18.0000 18.0000 18.0000 18.0000 18.0000 18.0000 18.0000 18.0000 18.0000 18.0000 18.0000 18.0000 18.0000 18.0000
      18.0000 18.0000 18.0000 18.0000 18.0000 18.0000 18.0000 18.0000 18.0000 18.0000
   2  18.0000 18.0000 18.0000 17.9999 17.9999 17.9998 17.9999 17.9999 18.0000 18.0000 18.0000 18.0000 18.0000 18.0000 18.0000
      18.0000 18.0000 18.0000 18.0000 18.0000 18.0000 18.0000 18.0000 18.0000 18.0000
   3  18.0000 18.0000 17.9999 18.0000 17.9997 17.9992 17.9997 18.0000 17.9999 18.0000 18.0000 18.0000 18.0000 18.0000 18.0000
      18.0000 18.0000 18.0000 18.0000 18.0000 18.0000 18.0000 18.0000 18.0000 18.0000
   4  18.0000 17.9999 18.0000 17.9995 17.9976 17.9932 17.9976 17.9995 18.0000 17.9999 18.0000 18.0000 18.0000 18.0000 18.0000
      18.0000 18.0000 18.0000 18.0000 18.0000 18.0000 18.0000 18.0000 18.0000 18.0000
   5  18.0000 17.9999 17.9997 17.9976 17.9872 17.9508 17.9872 17.9976 17.9997 17.9999 18.0000 18.0000 18.0000 18.0000 18.0000
      18.0000 18.0000 18.0000 18.0000 18.0000 18.0000 18.0000 18.0000 18.0000 18.0000
   6  18.0000 17.9998 17.9992 17.9932 17.9508 17.6588 17.9508 17.9932 17.9992 17.9998 18.0000 18.0000 18.0000 18.0000 18.0000
      18.0000 18.0000 18.0000 18.0000 18.0000 18.0000 18.0000 18.0000 18.0000 18.0000
   7  18.0000 17.9999 17.9997 17.9976 17.9872 17.9508 17.9872 17.9976 17.9997 17.9999 18.0000 18.0000 18.0000 18.0000 18.0000
      18.0000 18.0000 18.0000 18.0000 18.0000 18.0000 18.0000 18.0000 18.0000 18.0000
   8  18.0000 17.9999 18.0000 17.9995 17.9976 17.9932 17.9976 17.9995 18.0000 17.9999 18.0000 18.0000 17.9999 18.0000 18.0000
      18.0000 18.0000 18.0000 18.0000 18.0000 18.0000 18.0000 18.0000 18.0000 18.0000
   9  18.0000 18.0000 17.9999 18.0000 17.9997 17.9992 17.9997 18.0000 17.9999 18.0000 17.9999 17.9999 17.9998 17.9999 17.9999
      18.0000 18.0000 18.0000 18.0000 18.0000 18.0000 18.0000 18.0000 18.0000 18.0000
  10  18.0000 18.0000 18.0000 17.9999 17.9999 17.9998 17.9999 17.9999 18.0000 17.9999 17.9998 17.9998 17.9993 17.9998 17.9998
      17.9999 18.0000 18.0000 18.0000 18.0000 18.0000 18.0000 18.0000 18.0000 18.0000
  11  18.0000 18.0000 18.0000 18.0000 18.0000 18.0000 18.0000 18.0000 17.9999 17.9998 17.9994 17.9978 17.9934 17.9978 17.9993
      17.9998 17.9999 18.0000 18.0000 18.0000 18.0000 18.0000 18.0000 18.0000 18.0000
  12  18.0000 18.0000 18.0000 18.0000 18.0000 18.0000 18.0000 18.0000 17.9999 17.9998 17.9978 17.9874 17.9510 17.9874 17.9978
      17.9998 17.9999 18.0000 18.0000 18.0000 18.0000 18.0000 18.0000 18.0000 18.0000
  13  18.0000 18.0000 18.0000 18.0000 18.0000 18.0000 18.0000 17.9999 17.9998 17.9993 17.9934 17.9510 17.6590 17.9510 17.9934
      17.9993 17.9998 17.9999 18.0000 18.0000 18.0000 18.0000 18.0000 18.0000 18.0000
  14  18.0000 18.0000 18.0000 18.0000 18.0000 18.0000 18.0000 18.0000 17.9999 17.9998 17.9978 17.9874 17.9510 17.9874 17.9978
      17.9998 17.9999 18.0000 18.0000 18.0000 18.0000 18.0000 18.0000 18.0000 18.0000
  15  18.0000 18.0000 18.0000 18.0000 18.0000 18.0000 18.0000 18.0000 17.9999 17.9998 17.9993 17.9978 17.9934 17.9978 17.9994
      17.9998 17.9999 18.0000 18.0000 18.0000 18.0000 18.0000 18.0000 18.0000 18.0000
  16  18.0000 18.0000 18.0000 18.0000 18.0000 18.0000 18.0000 18.0000 18.0000 17.9999 17.9998 17.9998 17.9993 17.9998 17.9998
      17.9999 18.0000 17.9999 17.9999 17.9998 17.9999 17.9999 18.0000 18.0000 18.0000
  17  18.0000 18.0000 18.0000 18.0000 18.0000 18.0000 18.0000 18.0000 18.0000 18.0000 17.9999 17.9999 17.9998 17.9999 17.9999
      18.0000 17.9999 18.0000 17.9997 17.9992 17.9997 18.0000 17.9999 18.0000 18.0000
  18  18.0000 18.0000 18.0000 18.0000 18.0000 18.0000 18.0000 18.0000 18.0000 18.0000 18.0000 18.0000 17.9999 18.0000 18.0000
      17.9999 18.0000 17.9995 17.9976 17.9932 17.9976 17.9995 18.0000 17.9999 18.0000
  19  18.0000 18.0000 18.0000 18.0000 18.0000 18.0000 18.0000 18.0000 18.0000 18.0000 18.0000 18.0000 18.0000 18.0000 18.0000
      17.9999 17.9997 17.9976 17.9872 17.9508 17.9872 17.9976 17.9997 17.9999 18.0000
  20  18.0000 18.0000 18.0000 18.0000 18.0000 18.0000 18.0000 18.0000 18.0000 18.0000 18.0000 18.0000 18.0000 18.0000 18.0000
      17.9998 17.9992 17.9932 17.9508 17.6588 17.9508 17.9932 17.9992 17.9998 18.0000
  21  18.0000 18.0000 18.0000 18.0000 18.0000 18.0000 18.0000 18.0000 18.0000 18.0000 18.0000 18.0000 18.0000 18.0000 18.0000
      17.9999 17.9997 17.9976 17.9872 17.9508 17.9872 17.9976 17.9997 17.9999 18.0000
  22  18.0000 18.0000 18.0000 18.0000 18.0000 18.0000 18.0000 18.0000 18.0000 18.0000 18.0000 18.0000 18.0000 18.0000 18.0000
      17.9999 18.0000 17.9995 17.9976 17.9932 17.9976 17.9995 18.0000 17.9999 18.0000
  23  18.0000 18.0000 18.0000 18.0000 18.0000 18.0000 18.0000 18.0000 18.0000 18.0000 18.0000 18.0000 18.0000 18.0000 18.0000
      18.0000 17.9999 18.0000 17.9997 17.9992 17.9997 18.0000 17.9999 18.0000 18.0000
  24  18.0000 18.0000 18.0000 18.0000 18.0000 18.0000 18.0000 18.0000 18.0000 18.0000 18.0000 18.0000 18.0000 18.0000 18.0000
      18.0000 18.0000 17.9999 17.9999 17.9998 17.9999 17.9999 18.0000 18.0000 18.0000
  25  18.0000 18.0000 18.0000 18.0000 18.0000 18.0000 18.0000 18.0000 18.0000 18.0000 18.0000 18.0000 18.0000 18.0000 18.0000
      18.0000 18.0000 18.0000 18.0000 18.0000 18.0000 18.0000 18.0000 18.0000 18.0000

 HEAD WILL BE SAVED ON UNIT   16 AT END OF TIME STEP    5, STRESS PERIOD    1



         TIME SUMMARY AT END OF TIME STEP    5 IN STRESS PERIOD    1
                    SECONDS     MINUTES      HOURS       DAYS        YEARS
                    -----------------------------------------------------------
   TIME STEP LENGTH  86400.      1440.0      24.000      1.0000     2.73785E-03
 STRESS PERIOD TIME 4.32000E+05  7200.0      120.00      5.0000     1.36893E-02
         TOTAL TIME 4.32000E+05  7200.0      120.00      5.0000     1.36893E-02
1

 SOLVING FOR HEAD 
     2 CALLS TO PCG ROUTINE FOR TIME STEP   6 IN STRESS PERIOD    1
     3 TOTAL ITERATIONS
     1 CALLS TO PCG ROUTINE FOR TIME STEP   6 IN STRESS PERIOD    1
     1 TOTAL ITERATIONS

 OUTPUT CONTROL FOR STRESS PERIOD    1   TIME STEP    6
    PRINT HEAD FOR ALL LAYERS
    SAVE HEAD FOR ALL LAYERS
    SAVE BUDGET
 UBDSV1 SAVING "         STORAGE" ON UNIT  20 AT TIME STEP  6, STRESS PERIOD   1
 UBDSV2 SAVING "   CONSTANT HEAD" ON UNIT  20 AT TIME STEP  6, STRESS PERIOD   1
 UBDSV1 SAVING "FLOW RIGHT FACE " ON UNIT  20 AT TIME STEP  6, STRESS PERIOD   1
 UBDSV1 SAVING "FLOW FRONT FACE " ON UNIT  20 AT TIME STEP  6, STRESS PERIOD   1
 UBDSV1 SAVING "FLOW LOWER FACE " ON UNIT  20 AT TIME STEP  6, STRESS PERIOD   1
1
              HEAD IN LAYER   1 AT END OF TIME STEP   6 IN STRESS PERIOD    1
  ---------------------------------------------------------------------------

           1       2       3       4       5       6       7       8       9      10      11      12      13      14      15
          16      17      18      19      20      21      22      23      24      25
 ...........................................................................................................................
   1  18.0000 18.0000 18.0000 18.0000 18.0000 18.0000 18.0000 18.0000 18.0000 18.0000 18.0000 18.0000 18.0000 18.0000 18.0000
      18.0000 18.0000 18.0000 18.0000 18.0000 18.0000 18.0000 18.0000 18.0000 18.0000
   2  18.0000 18.0000 18.0000 17.9999 17.9999 17.9998 17.9999 17.9999 18.0000 18.0000 18.0000 18.0000 18.0000 18.0000 18.0000
      18.0000 18.0000 18.0000 18.0000 18.0000 18.0000 18.0000 18.0000 18.0000 18.0000
   3  18.0000 18.0000 17.9999 18.0003 18.0000 17.9995 18.0000 18.0003 17.9999 18.0000 18.0000 18.0000 18.0000 18.0000 18.0000
      18.0000 18.0000 18.0000 18.0000 18.0000 18.0000 18.0000 18.0000 18.0000 18.0000
   4  18.0000 17.9999 18.0003 17.9998 17.9980 17.9936 17.9980 17.9998 18.0003 17.9999 18.0000 18.0000 18.0000 18.0000 18.0000
      18.0000 18.0000 18.0000 18.0000 18.0000 18.0000 18.0000 18.0000 18.0000 18.0000
   5  18.0000 17.9999 18.0000 17.9980 17.9876 17.9535 17.9876 17.9980 18.0000 17.9999 18.0000 18.0000 18.0000 18.0000 18.0000
      18.0000 18.0000 18.0000 18.0000 18.0000 18.0000 18.0000 18.0000 18.0000 18.0000
   6  18.0000 17.9998 17.9995 17.9936 17.9535 17.7330 17.9535 17.9936 17.9995 17.9998 18.0000 18.0000 18.0000 18.0000 18.0000
      18.0000 18.0000 18.0000 18.0000 18.0000 18.0000 18.0000 18.0000 18.0000 18.0000
   7  18.0000 17.9999 18.0000 17.9980 17.9876 17.9535 17.9876 17.9980 18.0000 17.9999 18.0000 18.0000 18.0000 18.0000 18.0000
      18.0000 18.0000 18.0000 18.0000 18.0000 18.0000 18.0000 18.0000 18.0000 18.0000
   8  18.0000 17.9999 18.0003 17.9998 17.9980 17.9936 17.9980 17.9998 18.0003 17.9999 18.0000 18.0000 18.0000 18.0000 18.0000
      18.0000 18.0000 18.0000 18.0000 18.0000 18.0000 18.0000 18.0000 18.0000 18.0000
   9  18.0000 18.0000 17.9999 18.0003 18.0000 17.9995 18.0000 18.0003 17.9999 18.0000 18.0000 17.9999 17.9998 17.9999 17.9999
      18.0000 18.0000 18.0000 18.0000 18.0000 18.0000 18.0000 18.0000 18.0000 18.0000
  10  18.0000 18.0000 18.0000 17.9999 17.9999 17.9998 17.9999 17.9999 18.0000 17.9999 17.9999 18.0003 17.9998 18.0003 17.9998
      17.9999 18.0000 18.0000 18.0000 18.0000 18.0000 18.0000 18.0000 18.0000 18.0000
  11  18.0000 18.0000 18.0000 18.0000 18.0000 18.0000 18.0000 18.0000 18.0000 17.9999 17.9994 17.9983 17.9940 17.9983 17.9994
      17.9998 17.9999 18.0000 18.0000 18.0000 18.0000 18.0000 18.0000 18.0000 18.0000
  12  18.0000 18.0000 18.0000 18.0000 18.0000 18.0000 18.0000 18.0000 17.9999 18.0003 17.9983 17.9880 17.9538 17.9880 17.9983
      18.0003 17.9999 18.0000 18.0000 18.0000 18.0000 18.0000 18.0000 18.0000 18.0000
  13  18.0000 18.0000 18.0000 18.0000 18.0000 18.0000 18.0000 18.0000 17.9998 17.9998 17.9940 17.9538 17.7334 17.9538 17.9940
      17.9998 17.9998 18.0000 18.0000 18.0000 18.0000 18.0000 18.0000 18.0000 18.0000
  14  18.0000 18.0000 18.0000 18.0000 18.0000 18.0000 18.0000 18.0000 17.9999 18.0003 17.9983 17.9880 17.9538 17.9880 17.9983
      18.0003 17.9999 18.0000 18.0000 18.0000 18.0000 18.0000 18.0000 18.0000 18.0000
  15  18.0000 18.0000 18.0000 18.0000 18.0000 18.0000 18.0000 18.0000 17.9999 17.9998 17.9994 17.9983 17.9940 17.9983 17.9994
      17.9999 18.0000 18.0000 18.0000 18.0000 18.0000 18.0000 18.0000 18.0000 18.0000
  16  18.0000 18.0000 18.0000 18.0000 18.0000 18.0000 18.0000 18.0000 18.0000 17.9999 17.9998 18.0003 17.9998 18.0003 17.9999
      17.9999 18.0000 17.9999 17.9999 17.9998 17.9999 18.0000 18.0000 18.0000 18.0000
  17  18.0000 18.0000 18.0000 18.0000 18.0000 18.0000 18.0000 18.0000 18.0000 18.0000 17.9999 17.9999 17.9998 17.9999 18.0000
      18.0000 17.9999 18.0003 18.0000 17.9995 18.0000 18.0003 17.9999 18.0000 18.0000
  18  18.0000 18.0000 18.0000 18.0000 18.0000 18.0000 18.0000 18.0000 18.0000 18.0000 18.0000 18.0000 18.0000 18.0000 18.0000
      17.9999 18.0003 17.9998 17.9980 17.9936 17.9980 17.9998 18.0003 18.0000 18.0000
  19  18.0000 18.0000 18.0000 18.0000 18.0000 18.0000 18.0000 18.0000 18.0000 18.0000 18.0000 18.0000 18.0000 18.0000 18.0000
      17.9999 18.0000 17.9980 17.9876 17.9535 17.9876 17.9980 18.0000 17.9999 18.0000
  20  18.0000 18.0000 18.0000 18.0000 18.0000 18.0000 18.0000 18.0000 18.0000 18.0000 18.0000 18.0000 18.0000 18.0000 18.0000
      17.9998 17.9995 17.9936 17.9535 17.7330 17.9535 17.9936 17.9995 17.9998 18.0000
  21  18.0000 18.0000 18.0000 18.0000 18.0000 18.0000 18.0000 18.0000 18.0000 18.0000 18.0000 18.0000 18.0000 18.0000 18.0000
      17.9999 18.0000 17.9980 17.9876 17.9535 17.9876 17.9980 18.0000 17.9999 18.0000
  22  18.0000 18.0000 18.0000 18.0000 18.0000 18.0000 18.0000 18.0000 18.0000 18.0000 18.0000 18.0000 18.0000 18.0000 18.0000
      18.0000 18.0003 17.9998 17.9980 17.9936 17.9980 17.9998 18.0003 17.9999 18.0000
  23  18.0000 18.0000 18.0000 18.0000 18.0000 18.0000 18.0000 18.0000 18.0000 18.0000 18.0000 18.0000 18.0000 18.0000 18.0000
      18.0000 17.9999 18.0003 18.0000 17.9995 18.0000 18.0003 17.9999 18.0000 18.0000
  24  18.0000 18.0000 18.0000 18.0000 18.0000 18.0000 18.0000 18.0000 18.0000 18.0000 18.0000 18.0000 18.0000 18.0000 18.0000
      18.0000 18.0000 18.0000 17.9999 17.9998 17.9999 17.9999 18.0000 18.0000 18.0000
  25  18.0000 18.0000 18.0000 18.0000 18.0000 18.0000 18.0000 18.0000 18.0000 18.0000 18.0000 18.0000 18.0000 18.0000 18.0000
      18.0000 18.0000 18.0000 18.0000 18.0000 18.0000 18.0000 18.0000 18.0000 18.0000
1
              HEAD IN LAYER   2 AT END OF TIME STEP   6 IN STRESS PERIOD    1
  ---------------------------------------------------------------------------

           1       2       3       4       5       6       7       8       9      10      11      12      13      14      15
          16      17      18      19      20      21      22      23      24      25
 ...........................................................................................................................
   1  18.0000 18.0000 18.0000 18.0000 18.0000 18.0000 18.0000 18.0000 18.0000 18.0000 18.0000 18.0000 18.0000 18.0000 18.0000
      18.0000 18.0000 18.0000 18.0000 18.0000 18.0000 18.0000 18.0000 18.0000 18.0000
   2  18.0000 18.0000 18.0000 18.0000 17.9999 17.9998 17.9999 18.0000 18.0000 18.0000 18.0000 18.0000 18.0000 18.0000 18.0000
      18.0000 18.0000 18.0000 18.0000 18.0000 18.0000 18.0000 18.0000 18.0000 18.0000
   3  18.0000 18.0000 18.0000 18.0002 17.9998 17.9992 17.9998 18.0002 18.0000 18.0000 18.0000 18.0000 18.0000 18.0000 18.0000
      18.0000 18.0000 18.0000 18.0000 18.0000 18.0000 18.0000 18.0000 18.0000 18.0000
   4  18.0000 18.0000 18.0002 17.9996 17.9971 17.9917 17.9971 17.9996 18.0002 18.0000 18.0000 18.0000 18.0000 18.0000 18.0000
      18.0000 18.0000 18.0000 18.0000 18.0000 18.0000 18.0000 18.0000 18.0000 18.0000
   5  18.0000 17.9999 17.9998 17.9971 17.9841 17.9425 17.9841 17.9971 17.9998 17.9999 18.0000 18.0000 18.0000 18.0000 18.0000
      18.0000 18.0000 18.0000 18.0000 18.0000 18.0000 18.0000 18.0000 18.0000 18.0000
   6  18.0000 17.9998 17.9992 17.9917 17.9425 17.6336 17.9425 17.9917 17.9992 17.9998 18.0000 18.0000 18.0000 18.0000 18.0000
      18.0000 18.0000 18.0000 18.0000 18.0000 18.0000 18.0000 18.0000 18.0000 18.0000
   7  18.0000 17.9999 17.9998 17.9971 17.9841 17.9425 17.9841 17.9971 17.9998 17.9999 18.0000 18.0000 18.0000 18.0000 18.0000
      18.0000 18.0000 18.0000 18.0000 18.0000 18.0000 18.0000 18.0000 18.0000 18.0000
[...]
   2  18.3797 18.3779 18.3740 18.3680 18.3617 18.3582 18.3603 18.3632 18.3590 18.3346 18.2644 18.1066 18.0347 18.0080 18.0027
      18.0011 18.0006 18.0003 18.0001 18.0000 18.0000 18.0000 18.0000 18.0000 18.0000
   3  18.3777 18.3740 18.3656 18.3508 18.3352 18.3259 18.3339 18.3460 18.3507 18.3308 18.2629 18.1060 18.0345 18.0079 18.0027
      18.0011 18.0006 18.0003 18.0001 18.0000 18.0000 18.0000 18.0000 18.0000 18.0000
   4  18.3747 18.3680 18.3508 18.3237 18.2870 18.2585 18.2857 18.3190 18.3359 18.3250 18.2606 18.1052 18.0342 18.0078 18.0027
      18.0011 18.0005 18.0003 18.0001 18.0000 18.0000 18.0000 18.0000 18.0000 18.0000
   5  18.3716 18.3617 18.3352 18.2870 18.2052 18.1061 18.2038 18.2823 18.3204 18.3189 18.2583 18.1042 18.0338 18.0076 18.0025
      18.0010 18.0005 18.0003 18.0001 18.0000 18.0000 18.0000 18.0000 18.0000 18.0000
   6  18.3699 18.3582 18.3259 18.2585 18.1061 17.6897 18.1047 18.2537 18.3110 18.3154 18.2567 18.1034 18.0332 18.0071 18.0022
      18.0008 18.0004 18.0003 18.0001 18.0001 18.0000 18.0000 18.0000 18.0000 18.0000
   7  18.3703 18.3603 18.3339 18.2857 18.2038 18.1047 18.2024 18.2808 18.3188 18.3171 18.2563 18.1021 18.0317 18.0059 18.0013
      18.0003 18.0002 18.0002 18.0002 18.0002 18.0002 18.0001 18.0002 18.0002 18.0002
   8  18.3699 18.3632 18.3460 18.3190 18.2823 18.2537 18.2808 18.3139 18.3305 18.3190 18.2541 18.0984 18.0277 18.0025 17.9991
      17.9990 17.9996 18.0001 18.0003 18.0004 18.0004 18.0004 18.0004 18.0004 18.0004
   9  18.3626 18.3590 18.3507 18.3359 18.3204 18.3110 18.3188 18.3305 18.3343 18.3134 18.2445 18.0876 18.0169 17.9943 17.9938
      17.9964 17.9986 17.9999 18.0005 18.0008 18.0009 18.0009 18.0009 18.0009 18.0009
  10  18.3363 18.3346 18.3308 18.3250 18.3189 18.3154 18.3171 18.3190 18.3134 18.2871 18.2159 18.0609 17.9905 17.9761 17.9830
      17.9918 17.9974 18.0002 18.0014 18.0020 18.0021 18.0022 18.0023 18.0023 18.0023
  11  18.2651 18.2644 18.2629 18.2606 18.2583 18.2567 18.2563 18.2541 18.2445 18.2159 18.1450 17.9959 17.9211 17.9329 17.9640
      17.9871 17.9981 18.0032 18.0053 18.0062 18.0065 18.0066 18.0067 18.0067 18.0067
  12  18.1069 18.1066 18.1060 18.1052 18.1042 18.1034 18.1021 18.0984 18.0876 18.0609 17.9959 17.8795 17.7626 17.8594 17.9447
      17.9928 18.0091 18.0166 18.0198 18.0210 18.0215 18.0217 18.0219 18.0220 18.0220
  13  18.0348 18.0347 18.0345 18.0342 18.0338 18.0332 18.0317 18.0277 18.0169 17.9905 17.9211 17.7626 17.3455 17.7828 17.9615
      18.0425 18.0700 18.0813 18.0857 18.0874 18.0881 18.0886 18.0890 18.0892 18.0893
  14  18.0080 18.0080 18.0079 18.0078 18.0076 18.0071 18.0059 18.0025 17.9943 17.9761 17.9329 17.8594 17.7828 17.9336 18.0986
      18.1929 18.2297 18.2447 18.2500 18.2519 18.2530 18.2541 18.2551 18.2558 18.2562
  15  18.0028 18.0027 18.0027 18.0027 18.0025 18.0022 18.0013 17.9991 17.9938 17.9830 17.9640 17.9447 17.9615 18.0986 18.3678
      18.4982 18.5517 18.5710 18.5765 18.5781 18.5800 18.5827 18.5853 18.5870 18.5879
  16  18.0011 18.0011 18.0011 18.0011 18.0010 18.0008 18.0003 17.9990 17.9964 17.9918 17.9871 17.9928 18.0425 18.1929 18.4982
      18.6474 18.7082 18.7275 18.7303 18.7302 18.7343 18.7409 18.7470 18.7511 18.7531
  17  18.0006 18.0006 18.0006 18.0005 18.0005 18.0004 18.0002 17.9996 17.9986 17.9974 17.9981 18.0091 18.0700 18.2297 18.5517
      18.7082 18.7689 18.7816 18.7756 18.7697 18.7798 18.7958 18.8102 18.8188 18.8228
  18  18.0003 18.0003 18.0003 18.0003 18.0003 18.0003 18.0002 18.0001 17.9999 18.0002 18.0032 18.0166 18.0813 18.2447 18.5710
      18.7275 18.7816 18.7819 18.7550 18.7301 18.7592 18.7964 18.8238 18.8406 18.8475
  19  18.0001 18.0001 18.0001 18.0001 18.0001 18.0001 18.0002 18.0003 18.0005 18.0014 18.0053 18.0198 18.0857 18.2500 18.5765
      18.7303 18.7756 18.7550 18.6835 18.5895 18.6878 18.7694 18.8180 18.8440 18.8543
  20  18.0000 18.0000 18.0000 18.0000 18.0000 18.0001 18.0002 18.0004 18.0008 18.0020 18.0062 18.0210 18.0874 18.2519 18.5781
      18.7302 18.7697 18.7301 18.5895 18.1834 18.5938 18.7446 18.8122 18.8440 18.8561
  21  18.0000 18.0000 18.0000 18.0000 18.0000 18.0000 18.0002 18.0004 18.0009 18.0021 18.0065 18.0215 18.0881 18.2530 18.5800
      18.7343 18.7798 18.7592 18.6878 18.5938 18.6920 18.7737 18.8223 18.8483 18.8586
  22  18.0000 18.0000 18.0000 18.0000 18.0000 18.0000 18.0001 18.0004 18.0009 18.0022 18.0066 18.0217 18.0886 18.2541 18.5827
      18.7409 18.7958 18.7964 18.7694 18.7446 18.7737 18.8109 18.8384 18.8552 18.8621
  23  18.0000 18.0000 18.0000 18.0000 18.0000 18.0000 18.0002 18.0004 18.0009 18.0023 18.0067 18.0219 18.0890 18.2551 18.5853
      18.7470 18.8102 18.8238 18.8180 18.8122 18.8223 18.8384 18.8528 18.8616 18.8656
  24  18.0000 18.0000 18.0000 18.0000 18.0000 18.0000 18.0002 18.0004 18.0009 18.0023 18.0067 18.0220 18.0892 18.2558 18.5870
      18.7511 18.8188 18.8406 18.8440 18.8440 18.8483 18.8552 18.8616 18.8660 18.8680
  25  18.0000 18.0000 18.0000 18.0000 18.0000 18.0000 18.0002 18.0004 18.0009 18.0023 18.0067 18.0220 18.0893 18.2562 18.5879
      18.7531 18.8228 18.8475 18.8543 18.8561 18.8586 18.8621 18.8656 18.8680 18.8692

 HEAD WILL BE SAVED ON UNIT   16 AT END OF TIME STEP   59, STRESS PERIOD    1



         TIME SUMMARY AT END OF TIME STEP   59 IN STRESS PERIOD    1
                    SECONDS     MINUTES      HOURS       DAYS        YEARS
                    -----------------------------------------------------------
   TIME STEP LENGTH  86400.      1440.0      24.000      1.0000     2.73785E-03
 STRESS PERIOD TIME 5.09760E+06  84960.      1416.0      59.000     0.16153    
         TOTAL TIME 5.09760E+06  84960.      1416.0      59.000     0.16153    
1

 SOLVING FOR HEAD 
     2 CALLS TO PCG ROUTINE FOR TIME STEP  60 IN STRESS PERIOD    1
     3 TOTAL ITERATIONS
     1 CALLS TO PCG ROUTINE FOR TIME STEP  60 IN STRESS PERIOD    1
     1 TOTAL ITERATIONS

 OUTPUT CONTROL FOR STRESS PERIOD    1   TIME STEP   60
    PRINT HEAD FOR ALL LAYERS
    SAVE HEAD FOR ALL LAYERS
    SAVE BUDGET
 UBDSV1 SAVING "         STORAGE" ON UNIT  20 AT TIME STEP 60, STRESS PERIOD   1
 UBDSV2 SAVING "   CONSTANT HEAD" ON UNIT  20 AT TIME STEP 60, STRESS PERIOD   1
 UBDSV1 SAVING "FLOW RIGHT FACE " ON UNIT  20 AT TIME STEP 60, STRESS PERIOD   1
 UBDSV1 SAVING "FLOW FRONT FACE " ON UNIT  20 AT TIME STEP 60, STRESS PERIOD   1
 UBDSV1 SAVING "FLOW LOWER FACE " ON UNIT  20 AT TIME STEP 60, STRESS PERIOD   1
1
              HEAD IN LAYER   1 AT END OF TIME STEP  60 IN STRESS PERIOD    1
  ---------------------------------------------------------------------------

           1       2       3       4       5       6       7       8       9      10      11      12      13      14      15
          16      17      18      19      20      21      22      23      24      25
 ...........................................................................................................................
   1  18.3950 18.3941 18.3920 18.3890 18.3859 18.3843 18.3846 18.3842 18.3770 18.3506 18.2792 18.1064 18.0340 18.0073 18.0027
      18.0011 18.0006 18.0003 18.0001 18.0000 18.0000 18.0000 18.0000 18.0000 18.0000
   2  18.3941 18.3923 18.3884 18.3824 18.3760 18.3726 18.3747 18.3776 18.3734 18.3489 18.2785 18.1061 18.0339 18.0072 18.0027
      18.0011 18.0006 18.0003 18.0001 18.0000 18.0000 18.0000 18.0000 18.0000 18.0000
   3  18.3920 18.3884 18.3800 18.3651 18.3496 18.3402 18.3482 18.3603 18.3650 18.3452 18.2770 18.1055 18.0337 18.0072 18.0027
      18.0011 18.0005 18.0003 18.0001 18.0000 18.0000 18.0000 18.0000 18.0000 18.0000
   4  18.3890 18.3824 18.3651 18.3381 18.3014 18.2729 18.3000 18.3333 18.3502 18.3394 18.2748 18.1047 18.0334 18.0070 18.0026
      18.0011 18.0005 18.0003 18.0001 18.0000 18.0000 18.0000 18.0000 18.0000 18.0000
   5  18.3859 18.3760 18.3496 18.3014 18.2197 18.1225 18.2183 18.2966 18.3347 18.3333 18.2724 18.1037 18.0330 18.0068 18.0025
      18.0010 18.0005 18.0003 18.0001 18.0000 18.0000 18.0000 18.0000 18.0000 18.0000
   6  18.3843 18.3726 18.3402 18.2729 18.1225 17.7747 18.1212 18.2681 18.3253 18.3298 18.2709 18.1029 18.0324 18.0063 18.0022
      18.0008 18.0004 18.0003 18.0001 18.0001 18.0000 18.0000 18.0000 18.0000 18.0000
   7  18.3846 18.3747 18.3482 18.3000 18.2183 18.1212 18.2170 18.2951 18.3331 18.3315 18.2704 18.1016 18.0309 18.0051 18.0013
      18.0003 18.0002 18.0002 18.0002 18.0001 18.0001 18.0001 18.0001 18.0001 18.0001
   8  18.3842 18.3776 18.3603 18.3333 18.2966 18.2681 18.2951 18.3282 18.3447 18.3334 18.2683 18.0979 18.0269 18.0018 17.9991
      17.9990 17.9996 18.0001 18.0003 18.0004 18.0004 18.0004 18.0004 18.0004 18.0004
   9  18.3770 18.3734 18.3650 18.3502 18.3347 18.3253 18.3331 18.3447 18.3487 18.3278 18.2586 18.0872 18.0161 17.9936 17.9938
      17.9964 17.9986 17.9999 18.0005 18.0007 18.0008 18.0009 18.0009 18.0009 18.0009
  10  18.3506 18.3489 18.3452 18.3394 18.3333 18.3298 18.3315 18.3334 18.3278 18.3015 18.2302 18.0611 17.9904 17.9760 17.9830
      17.9918 17.9974 18.0002 18.0014 18.0019 18.0021 18.0022 18.0022 18.0023 18.0023
  11  18.2792 18.2785 18.2770 18.2748 18.2724 18.2709 18.2704 18.2683 18.2586 18.2302 18.1591 17.9961 17.9211 17.9328 17.9640
      17.9871 17.9981 18.0031 18.0053 18.0061 18.0064 18.0066 18.0066 18.0067 18.0067
  12  18.1064 18.1061 18.1055 18.1047 18.1037 18.1029 18.1016 18.0979 18.0872 18.0611 17.9961 17.8796 17.7645 17.8595 17.9447
      17.9927 18.0076 18.0151 18.0182 18.0194 18.0199 18.0202 18.0203 18.0204 18.0205
  13  18.0340 18.0339 18.0337 18.0334 18.0330 18.0324 18.0309 18.0269 18.0161 17.9904 17.9211 17.7645 17.4145 17.7847 17.9615
      18.0423 18.0684 18.0797 18.0841 18.0857 18.0865 18.0869 18.0873 18.0876 18.0877
  14  18.0073 18.0072 18.0072 18.0070 18.0068 18.0063 18.0051 18.0018 17.9936 17.9760 17.9328 17.8595 17.7847 17.9337 18.0991
      18.1933 18.2288 18.2438 18.2491 18.2509 18.2521 18.2532 18.2542 18.2549 18.2552
  15  18.0027 18.0027 18.0027 18.0026 18.0025 18.0022 18.0013 17.9991 17.9938 17.9830 17.9640 17.9447 17.9615 18.0991 18.3917
      18.5224 18.5758 18.5950 18.6005 18.6021 18.6041 18.6068 18.6093 18.6111 18.6120
  16  18.0011 18.0011 18.0011 18.0011 18.0010 18.0008 18.0003 17.9990 17.9964 17.9918 17.9871 17.9927 18.0423 18.1933 18.5224
      18.6719 18.7326 18.7519 18.7547 18.7546 18.7587 18.7653 18.7714 18.7755 18.7774
  17  18.0006 18.0006 18.0005 18.0005 18.0005 18.0004 18.0002 17.9996 17.9986 17.9974 17.9981 18.0076 18.0684 18.2288 18.5758
      18.7326 18.7932 18.8060 18.8001 18.7942 18.8043 18.8202 18.8345 18.8432 18.8471
  18  18.0003 18.0003 18.0003 18.0003 18.0003 18.0003 18.0002 18.0001 17.9999 18.0002 18.0031 18.0151 18.0797 18.2438 18.5950
      18.7519 18.8060 18.8064 18.7794 18.7547 18.7837 18.8208 18.8483 18.8649 18.8719
  19  18.0001 18.0001 18.0001 18.0001 18.0001 18.0001 18.0002 18.0003 18.0005 18.0014 18.0053 18.0182 18.0841 18.2491 18.6005
      18.7547 18.8001 18.7794 18.7081 18.6161 18.7124 18.7940 18.8425 18.8684 18.8786
  20  18.0000 18.0000 18.0000 18.0000 18.0000 18.0001 18.0001 18.0004 18.0007 18.0019 18.0061 18.0194 18.0857 18.2509 18.6021
      18.7546 18.7942 18.7547 18.6161 18.2807 18.6204 18.7692 18.8367 18.8684 18.8804
  21  18.0000 18.0000 18.0000 18.0000 18.0000 18.0000 18.0001 18.0004 18.0008 18.0021 18.0064 18.0199 18.0865 18.2521 18.6041
      18.7587 18.8043 18.7837 18.7124 18.6204 18.7167 18.7982 18.8468 18.8727 18.8829
  22  18.0000 18.0000 18.0000 18.0000 18.0000 18.0000 18.0001 18.0004 18.0009 18.0022 18.0066 18.0202 18.0869 18.2532 18.6068
      18.7653 18.8202 18.8208 18.7940 18.7692 18.7982 18.8354 18.8628 18.8795 18.8865
  23  18.0000 18.0000 18.0000 18.0000 18.0000 18.0000 18.0001 18.0004 18.0009 18.0022 18.0066 18.0203 18.0873 18.2542 18.6093
      18.7714 18.8345 18.8483 18.8425 18.8367 18.8468 18.8628 18.8772 18.8860 18.8899
  24  18.0000 18.0000 18.0000 18.0000 18.0000 18.0000 18.0001 18.0004 18.0009 18.0023 18.0067 18.0204 18.0876 18.2549 18.6111
      18.7755 18.8432 18.8649 18.8684 18.8684 18.8727 18.8795 18.8860 18.8903 18.8924
  25  18.0000 18.0000 18.0000 18.0000 18.0000 18.0000 18.0001 18.0004 18.0009 18.0023 18.0067 18.0205 18.0877 18.2552 18.6120
      18.7774 18.8471 18.8719 18.8786 18.8804 18.8829 18.8865 18.8899 18.8924 18.8936
1
              HEAD IN LAYER   2 AT END OF TIME STEP  60 IN STRESS PERIOD    1
  ---------------------------------------------------------------------------

           1       2       3       4       5       6       7       8       9      10      11      12      13      14      15
          16      17      18      19      20      21      22      23      24      25
 ...........................................................................................................................
   1  18.3949 18.3939 18.3917 18.3886 18.3854 18.3836 18.3839 18.3833 18.3755 18.3476 18.2737 18.1118 18.0369 18.0087 18.0030
      18.0012 18.0006 18.0003 18.0001 18.0000 18.0000 18.0000 18.0000 18.0000 18.0000
   2  18.3939 18.3920 18.3879 18.3817 18.3752 18.3716 18.3737 18.3764 18.3718 18.3459 18.2730 18.1115 18.0368 18.0086 18.0030
      18.0012 18.0006 18.0003 18.0001 18.0000 18.0000 18.0000 18.0000 18.0000 18.0000
   3  18.3917 18.3879 18.3792 18.3644 18.3486 18.3391 18.3471 18.3592 18.3631 18.3420 18.2714 18.1109 18.0366 18.0086 18.0029
      18.0012 18.0006 18.0003 18.0001 18.0000 18.0000 18.0000 18.0000 18.0000 18.0000
   4  18.3886 18.3817 18.3644 18.3369 18.2998 18.2711 18.2983 18.3317 18.3484 18.3360 18.2690 18.1100 18.0363 18.0084 18.0029
      18.0011 18.0006 18.0003 18.0001 18.0000 18.0000 18.0000 18.0000 18.0000 18.0000
   5  18.3854 18.3752 18.3486 18.2998 18.2176 18.1184 18.2161 18.2946 18.3326 18.3297 18.2666 18.1090 18.0358 18.0082 18.0027
      18.0010 18.0005 18.0003 18.0001 18.0000 18.0000 18.0000 18.0000 18.0000 18.0000
   6  18.3836 18.3716 18.3391 18.2711 18.1184 17.7019 18.1169 18.2659 18.3230 18.3261 18.2650 18.1081 18.0351 18.0077 18.0024
      18.0008 18.0004 18.0003 18.0001 18.0001 18.0000 18.0000 18.0000 18.0000 18.0000
   7  18.3839 18.3737 18.3471 18.2983 18.2161 18.1169 18.2145 18.2930 18.3308 18.3277 18.2644 18.1067 18.0336 18.0064 18.0015
      18.0003 18.0002 18.0002 18.0002 18.0002 18.0002 18.0002 18.0002 18.0002 18.0002
   8  18.3833 18.3764 18.3592 18.3317 18.2946 18.2659 18.2930 18.3261 18.3424 18.3295 18.2620 18.1028 18.0294 18.0029 17.9991
      17.9990 17.9996 18.0000 18.0003 18.0004 18.0004 18.0004 18.0004 18.0004 18.0004
   9  18.3755 18.3718 18.3631 18.3484 18.3326 18.3230 18.3308 18.3424 18.3455 18.3233 18.2519 18.0916 18.0182 17.9944 17.9937
      17.9963 17.9985 17.9999 18.0005 18.0008 18.0009 18.0009 18.0009 18.0010 18.0010
  10  18.3476 18.3459 18.3420 18.3360 18.3297 18.3261 18.3277 18.3295 18.3233 18.2957 18.2222 18.0640 17.9913 17.9758 17.9826
      17.9916 17.9973 18.0003 18.0016 18.0021 18.0023 18.0024 18.0024 18.0025 18.0025
  11  18.2737 18.2730 18.2714 18.2690 18.2666 18.2650 18.2644 18.2620 18.2519 18.2222 18.1492 17.9976 17.9211 17.9322 17.9636
      17.9870 17.9984 18.0036 18.0059 18.0068 18.0071 18.0073 18.0073 18.0074 18.0074
  12  18.1118 18.1115 18.1109 18.1100 18.1090 18.1081 18.1067 18.1028 18.0916 18.0640 17.9976 17.8796 17.7618 17.8587 17.9447
      17.9935 18.0103 18.0181 18.0214 18.0227 18.0232 18.0235 18.0237 18.0238 18.0238
  13  18.0369 18.0368 18.0366 18.0363 18.0358 18.0351 18.0336 18.0294 18.0182 17.9913 17.9211 17.7618 17.3447 17.7829 17.9630
      18.0453 18.0737 18.0855 18.0902 18.0919 18.0927 18.0932 18.0936 18.0939 18.0940
  14  18.0087 18.0086 18.0086 18.0084 18.0082 18.0077 18.0064 18.0029 17.9944 17.9758 17.9322 17.8587 17.7829 17.9355 18.1029
      18.1993 18.2376 18.2533 18.2590 18.2610 18.2622 18.2633 18.2644 18.2651 18.2655
  15  18.0030 18.0030 18.0029 18.0029 18.0027 18.0024 18.0015 17.9991 17.9937 17.9826 17.9636 17.9447 17.9630 18.1029 18.3744
      18.5078 18.5633 18.5835 18.5895 18.5913 18.5934 18.5961 18.5988 18.6006 18.6015
  16  18.0012 18.0012 18.0012 18.0011 18.0010 18.0008 18.0003 17.9990 17.9963 17.9916 17.9870 17.9935 18.0453 18.1993 18.5078
      18.6607 18.7239 18.7443 18.7476 18.7477 18.7520 18.7587 18.7650 18.7692 18.7713
  17  18.0006 18.0006 18.0006 18.0006 18.0005 18.0004 18.0002 17.9996 17.9985 17.9973 17.9984 18.0103 18.0737 18.2376 18.5633
      18.7239 18.7871 18.8013 18.7958 18.7901 18.8004 18.8166 18.8310 18.8399 18.8439
  18  18.0003 18.0003 18.0003 18.0003 18.0003 18.0003 18.0002 18.0000 17.9999 18.0003 18.0036 18.0181 18.0855 18.2533 18.5835
      18.7443 18.8013 18.8029 18.7763 18.7517 18.7810 18.8185 18.8463 18.8631 18.8702
  19  18.0001 18.0001 18.0001 18.0001 18.0001 18.0001 18.0002 18.0003 18.0005 18.0016 18.0059 18.0214 18.0902 18.2590 18.5895
      18.7476 18.7958 18.7763 18.7053 18.6116 18.7100 18.7920 18.8411 18.8672 18.8776
  20  18.0000 18.0000 18.0000 18.0000 18.0000 18.0001 18.0002 18.0004 18.0008 18.0021 18.0068 18.0227 18.0919 18.2610 18.5913
      18.7477 18.7901 18.7517 18.6116 18.2060 18.6162 18.7674 18.8354 18.8674 18.8797
  21  18.0000 18.0000 18.0000 18.0000 18.0000 18.0000 18.0002 18.0004 18.0009 18.0023 18.0071 18.0232 18.0927 18.2622 18.5934
      18.7520 18.8004 18.7810 18.7100 18.6162 18.7147 18.7967 18.8458 18.8719 18.8823
  22  18.0000 18.0000 18.0000 18.0000 18.0000 18.0000 18.0002 18.0004 18.0009 18.0024 18.0073 18.0235 18.0932 18.2633 18.5961
      18.7587 18.8166 18.8185 18.7920 18.7674 18.7967 18.8342 18.8620 18.8789 18.8860
  23  18.0000 18.0000 18.0000 18.0000 18.0000 18.0000 18.0002 18.0004 18.0009 18.0024 18.0073 18.0237 18.0936 18.2644 18.5988
      18.7650 18.8310 18.8463 18.8411 18.8354 18.8458 18.8620 18.8765 18.8855 18.8896
  24  18.0000 18.0000 18.0000 18.0000 18.0000 18.0000 18.0002 18.0004 18.0010 18.0025 18.0074 18.0238 18.0939 18.2651 18.6006
      18.7692 18.8399 18.8631 18.8672 18.8674 18.8719 18.8789 18.8855 18.8900 18.8922
  25  18.0000 18.0000 18.0000 18.0000 18.0000 18.0000 18.0002 18.0004 18.0010 18.0025 18.0074 18.0238 18.0940 18.2655 18.6015
      18.7713 18.8439 18.8702 18.8776 18.8797 18.8823 18.8860 18.8896 18.8922 18.8934

 HEAD WILL BE SAVED ON UNIT   16 AT END OF TIME STEP   60, STRESS PERIOD    1
1
  VOLUMETRIC BUDGET FOR ENTIRE MODEL AT END OF TIME STEP   60, STRESS PERIOD   1
  ------------------------------------------------------------------------------

     CUMULATIVE VOLUMES      L**3       RATES FOR THIS TIME STEP      L**3/T
     ------------------                 ------------------------

           IN:                                      IN:
           ---                                      ---
             STORAGE =        1907.1924               STORAGE =           3.6455
       CONSTANT HEAD =           0.0000         CONSTANT HEAD =           0.0000
               WELLS =           0.0000                 WELLS =           0.0000

            TOTAL IN =        1907.1924              TOTAL IN =           3.6455

          OUT:                                     OUT:
          ----                                     ----
             STORAGE =       46152.7500               STORAGE =        1371.4897
       CONSTANT HEAD =           0.0000         CONSTANT HEAD =           0.0000
               WELLS =        5400.0000                 WELLS =          90.0000

           TOTAL OUT =       51552.7500             TOTAL OUT =        1461.4897

            IN - OUT =      -49645.5586              IN - OUT =       -1457.8442

 PERCENT DISCREPANCY =        -185.73     PERCENT DISCREPANCY =        -199.00






         TIME SUMMARY AT END OF TIME STEP   60 IN STRESS PERIOD    1
                    SECONDS     MINUTES      HOURS       DAYS        YEARS
                    -----------------------------------------------------------
   TIME STEP LENGTH  86400.      1440.0      24.000      1.0000     2.73785E-03
 STRESS PERIOD TIME 5.18400E+06  86400.      1440.0      60.000     0.16427    
         TOTAL TIME 5.18400E+06  86400.      1440.0      60.000     0.16427    
1

 Run end date and time (yyyy/mm/dd hh:mm:ss): 2021/04/13 10:45:20
 Elapsed run time:  1 Hours, 41 Minutes, 47 Seconds

